Circuit: * W:\Desktop\ELEC4609_PRSG_D\PRSG_Dynamic\2phase_CLK_Testbench.asc

Direct Newton iteration for .op point succeeded.

Date: Mon Mar 20 18:17:13 2017
Total elapsed time: 0.421 seconds.

tnom = 27
temp = 27
method = modified trap
totiter = 18770
traniter = 18724
tranpoints = 5947
accept = 4395
rejected = 1552
matrix size = 15
fillins = 6
solver = Normal
Thread vector: 11.5/7.7[2] 4.8/2.8[2] 1.5/1.0[2] 0.1/0.4[1]  2592/500
Matrix Compiler1: 1.36 KB object code size  0.4/0.1/[0.1]
Matrix Compiler2:     122 opcodes  0.2/[0.2]/0.3


