Circuit: * W:\Desktop\Draft3.asc

Early termination of direct N-R iteration.
Direct Newton iteration failed to find .op point.  (Use ".option noopiter" to skip.)
Starting Gmin stepping
Gmin = 10
Gmin = 1.07374
Gmin = 0.115292
Gmin = 0.0123794
Gmin = 0.00132923
Gmin = 0.000142725
vernier = 0.5
vernier = 0.25
Gmin = 4.4017e-005
vernier = 0.125
vernier = 0.0625
vernier = 0.03125
vernier = 0.015625
Gmin = 4.23523e-005
vernier = 0.0078125
vernier = 0.00390625
vernier = 0.00195313
vernier = 0.000976563
Gmin = 4.22594e-005
vernier = 0.000488281
Gmin = 0
Gmin stepping failed

Starting source stepping with srcstepmethod=0
Source Step = 3.0303%
Source Step = 33.3333%
Source Step = 63.6364%
Source Step = 93.9394%
Source stepping succeeded in finding the operating point.

Heightened Def Con from 0.07327 to 0.07327
Heightened Def Con from 0.121109 +++++++++++++++++++++++to 0.121109
Heightened Def Con from 0.169002 +++++++++++++++++++++++to 0.169002
Heightened Def Con from 0.21689 to 0.21689
Heightened Def Con from 0.264783 ++++++++++++++++++++++to 0.264783
Heightened Def Con from 0.312675 +++++++++++++++++++++++to 0.312675
Heightened Def Con from 0.360542 to 0.360542
Heightened Def Con from 0.408438 +++++++++++++++++++++++to 0.408438
Heightened Def Con from 0.456314 to 0.456314
Heightened Def Con from 0.5 +++++++++++++++++++++++to 0.5
Heightened Def Con from 0.5 +++++++++++++++++++++++to 0.5
Heightened Def Con from 0.5 +++++++++++++++++++to 0.5
Heightened Def Con from 0.5 ++++++++++++++++++++++to 0.5
Heightened Def Con from 0.5 +++++++++++++++++++++to 0.5
Heightened Def Con from 0.5 ++++++++++++++++++++++to 0.5
Heightened Def Con from 0.5 +++++++++++++++++++++to 0.5
Heightened Def Con from 0.5 +++++++++++++++++++++to 0.5
Heightened Def Con from 0.5 +++++++++++++++++++++to 0.5
Heightened Def Con from 0.5 ++++++++++++++++++++++to 0.5
Heightened Def Con from 0.5 +++++++++++++++++++++to 0.5
Heightened Def Con from 0.5 +++++++++++++++++++++to 0.5
Heightened Def Con from 0.5 ++++++++++++++++++++++to 0.5
Heightened Def Con from 0.5 +++++++++++++++++++++to 0.5
Heightened Def Con from 0.5 +++++++++++++++++++++to 0.5
Heightened Def Con from 0.5 ++++++++++++++++++++++to 0.5
Heightened Def Con from 0.5 +++++++++++++++++++++to 0.5
Heightened Def Con from 0.5 +++++++++++++++++++++to 0.5
Heightened Def Con from 0.5 +++++++++++++++++++++to 0.5
Heightened Def Con from 0.5 ++++++++++++++++++++++to 0.5
Heightened Def Con from 0.5 +++++++++++++++++++++to 0.5
Heightened Def Con from 0.5 +++++++++++++++++++++to 0.5
Heightened Def Con from 0.5 +++++++++++++++++++++to 0.5
Heightened Def Con from 0.5 ++++++++++++++++++++++to 0.5
Heightened Def Con from 0.5 +++++++++++++++++++++to 0.5
Heightened Def Con from 0.5 +++++++++++++++++++++to 0.5
Heightened Def Con from 0.5 +++++++++++++++++++++to 0.5
Heightened Def Con from 0.5 ++++++++++++++++++++++to 0.5
Heightened Def Con from 0.5 +++++++++++++++++++++to 0.5
Heightened Def Con from 0.5 +++++++++++++++++++++to 0.5
Heightened Def Con from 0.5 +++++++++++++++++++++to 0.5
Heightened Def Con from 0.5 ++++++++++++++++++++++to 0.5
Heightened Def Con from 0.5 +++++++++++++++++++++to 0.5
Heightened Def Con from 0.5 +++++++++++++++++++++to 0.5
Heightened Def Con from 0.5 +++++++++++++++++++++to 0.5
Heightened Def Con from 0.5 +++++++++++++++++++++to 0.5
Heightened Def Con from 0.5 ++++++++++++++++++++++to 0.5
Heightened Def Con from 0.5 +++++++++++++++++++++to 0.5
Heightened Def Con from 0.5 +++++++++++++++++++++to 0.5
Heightened Def Con from 0.5 +++++++++++++++++++++to 0.5
Heightened Def Con from 0.5 +++++++++++++++++++++to 0.5
Heightened Def Con from 0.5 ++++++++++++++++++++++to 0.5
Heightened Def Con from 0.5 +++++++++++++++++++++to 0.5
Heightened Def Con from 0.5 +++++++++++++++++++++to 0.5
Heightened Def Con from 0.5 +++++++++++++++++++++to 0.5
Heightened Def Con from 0.5 +++++++++++++++++++++to 0.5
Heightened Def Con from 0.5 ++++++++++++++++++++++to 0.5
Heightened Def Con from 0.5 +++++++++++++++++++++to 0.5
Heightened Def Con from 0.5 +++++++++++++++++++++to 0.5
Heightened Def Con from 0.5 +++++++++++++++++++++to 0.5
Heightened Def Con from 0.5 +++++++++++++++++++++to 0.5
Heightened Def Con from 0.5 ++++++++++++++++++++++to 0.5
Heightened Def Con from 0.5 +++++++++++++++++++++to 0.5
Heightened Def Con from 0.5 +++++++++++++++++++++to 0.5
Heightened Def Con from 0.5 +++++++++++++++++++++to 0.5
Heightened Def Con from 0.5 +++++++++++++++++++++to 0.5
Heightened Def Con from 0.5 ++++++++++++++++++++++to 0.5
Heightened Def Con from 0.5 +++++++++++++++++++++to 0.5
Heightened Def Con from 0.5 +++++++++++++++++++++to 0.5
Heightened Def Con from 0.5 ++++++++++++++++++++++to 0.5
Heightened Def Con from 0.5 +++++++++++++++++++++to 0.5
Heightened Def Con from 0.5 +++++++++++++++++++++to 0.5
Heightened Def Con from 0.5 ++++++++++++++++++++++to 0.5
Heightened Def Con from 0.5 +++++++++++++++++++++to 0.5
Heightened Def Con from 0.5 +++++++++++++++++++++to 0.5
Heightened Def Con from 0.5 +++++++++++++++++++++to 0.5
Heightened Def Con from 0.5 ++++++++++++++++++++++to 0.5
Heightened Def Con from 0.5 +++++++++++++++++++++to 0.5
Heightened Def Con from 0.5 +++++++++++++++++++++to 0.5
Heightened Def Con from 0.5 ++++++++++++++++++++++to 0.5
Heightened Def Con from 0.5 ++++++++++++++++++++to 0.5
Heightened Def Con from 0.5 ++++++++++++++++++++++to 0.5
Heightened Def Con from 0.5 +++++++++++++++++++++to 0.5
Heightened Def Con from 0.5 +++++++++++++++++++++to 0.5
Heightened Def Con from 0.5 +++++++++++++++++++++to 0.5
Heightened Def Con from 0.5 ++++++++++++++++++++++to 0.5
Heightened Def Con from 0.5 ++++++++++++++++++++to 0.5
Heightened Def Con from 0.5 ++++++++++++++++++++++to 0.5
Heightened Def Con from 0.5 ++++++++++++++++++++to 0.5
Heightened Def Con from 0.5 ++++++++++++++++++++++to 0.5
Heightened Def Con from 0.5 ++++++++++++++++++++to 0.5
Heightened Def Con from 0.5 ++++++++++++++++++++++to 0.5
Heightened Def Con from 0.5 ++++++++++++++++++++to 0.5
Heightened Def Con from 0.5 ++++++++++++++++++++++to 0.5
Heightened Def Con from 0.5 ++++++++++++++++++++to 0.5
Heightened Def Con from 0.5 +++++++++++++++++++++to 0.5
Heightened Def Con from 0.5 ++++++++++++++++++++++to 0.5
Heightened Def Con from 0.5 ++++++++++++++++++++to 0.5
Heightened Def Con from 0.5 ++++++++++++++++++++++to 0.5
Heightened Def Con from 0.5 ++++++++++++++++++++to 0.5
Heightened Def Con from 0.5 +++++++++++++++++++++to 0.5
Heightened Def Con from 0.5 ++++++++++++++++++++++to 0.5
Heightened Def Con from 0.5 ++++++++++++++++++++to 0.5
Heightened Def Con from 0.5 +++++++++++++++++++++to 0.5
Heightened Def Con from 0.5 ++++++++++++++++++++++to 0.5
Heightened Def Con from 0.5 ++++++++++++++++++++to 0.5
Heightened Def Con from 0.5 +++++++++++++++++++++to 0.5
Heightened Def Con from 0.5 +++++++++++++++++++++to 0.5
Heightened Def Con from 0.5 ++++++++++++++++++++++to 0.5
Heightened Def Con from 0.5 ++++++++++++++++++++to 0.5
Heightened Def Con from 0.5 +++++++++++++++++++++to 0.5
Heightened Def Con from 0.5 ++++++++++++++++++++++to 0.5
Heightened Def Con from 0.5 ++++++++++++++++++++to 0.5
Heightened Def Con from 0.5 +++++++++++++++++++++to 0.5
Heightened Def Con from 0.5 +++++++++++++++++++++to 0.5
Heightened Def Con from 0.5 ++++++++++++++++++++++to 0.5
Heightened Def Con from 0.5 ++++++++++++++++++++to 0.5
Heightened Def Con from 0.5 +++++++++++++++++++++to 0.5
Heightened Def Con from 0.5 +++++++++++++++++++++to 0.5
Heightened Def Con from 0.5 ++++++++++++++++++++++to 0.5
Heightened Def Con from 0.5 ++++++++++++++++++++to 0.5
Heightened Def Con from 0.5 +++++++++++++++++++++to 0.5
Heightened Def Con from 0.5 +++++++++++++++++++++to 0.5
Heightened Def Con from 0.5 ++++++++++++++++++++++to 0.5
Heightened Def Con from 0.5 ++++++++++++++++++++to 0.5
Heightened Def Con from 0.5 +++++++++++++++++++++to 0.5
Heightened Def Con from 0.5 +++++++++++++++++++++to 0.5
Heightened Def Con from 0.5 ++++++++++++++++++++++to 0.5
Heightened Def Con from 0.5 ++++++++++++++++++++to 0.5
Heightened Def Con from 0.5 +++++++++++++++++++++to 0.5
Heightened Def Con from 0.5 +++++++++++++++++++++to 0.5
Heightened Def Con from 0.5 ++++++++++++++++++++++to 0.5
Heightened Def Con from 0.5 ++++++++++++++++++++to 0.5
Heightened Def Con from 0.5 +++++++++++++++++++++to 0.5
Heightened Def Con from 0.5 +++++++++++++++++++++to 0.5
Heightened Def Con from 0.5 +++++++++++++++++++++to 0.5
Heightened Def Con from 0.5 ++++++++++++++++++++++to 0.5
Heightened Def Con from 0.5 ++++++++++++++++++++to 0.5
Heightened Def Con from 0.5 +++++++++++++++++++++to 0.5
Heightened Def Con from 0.5 +++++++++++++++++++++to 0.5
Heightened Def Con from 0.5 ++++++++++++++++++++++to 0.5
Heightened Def Con from 0.5 ++++++++++++++++++++to 0.5
Heightened Def Con from 0.5 +++++++++++++++++++++to 0.5
Heightened Def Con from 0.5 ++++++++++++++++++++++to 0.5
Heightened Def Con from 0.5 ++++++++++++++++++++to 0.5
Heightened Def Con from 0.5 +++++++++++++++++++++to 0.5
Heightened Def Con from 0.5 +++++++++++++++++++++to 0.5
Heightened Def Con from 0.5 +++++++++++++++++++++to 0.5
Heightened Def Con from 0.5 ++++++++++++++++++++++to 0.5
Heightened Def Con from 0.5 ++++++++++++++++++++to 0.5
Heightened Def Con from 0.5 +++++++++++++++++++++to 0.5
Heightened Def Con from 0.5 ++++++++++++++++++++++to 0.5
Heightened Def Con from 0.5 ++++++++++++++++++++to 0.5
Heightened Def Con from 0.5 +++++++++++++++++++++to 0.5
Heightened Def Con from 0.5 ++++++++++++++++++++++to 0.5
Heightened Def Con from 0.5 ++++++++++++++++++++to 0.5
Heightened Def Con from 0.5 +++++++++++++++++++++to 0.5
Heightened Def Con from 0.5 ++++++++++++++++++++++to 0.5
Heightened Def Con from 0.5 +++++++++++++++++++to 0.5
Heightened Def Con from 0.5 ++++++++++++++++++++++to 0.5
Heightened Def Con from 0.5 +++++++++++++++++++to 0.5
Heightened Def Con from 0.5 ++++++++++++++++++++++to 0.5
Heightened Def Con from 0.5 +++++++++++++++++++to 0.5
Heightened Def Con from 0.5 ++++++++++++++++++++++to 0.5
Heightened Def Con from 0.5 +++++++++++++++++++to 0.5
Heightened Def Con from 0.5 +++++++++++++++++++++to 0.5
Heightened Def Con from 0.5 ++++++++++++++++++++++to 0.5
Heightened Def Con from 0.5 +++++++++++++++++++to 0.5
Heightened Def Con from 0.5 ++++++++++++++++++++++to 0.5
Heightened Def Con from 0.5 +++++++++++++++++++to 0.5
Heightened Def Con from 0.5 +++++++++++++++++++++to 0.5
Heightened Def Con from 0.5 ++++++++++++++++++++++to 0.5
Heightened Def Con from 0.5 +++++++++++++++++++to 0.5
Heightened Def Con from 0.5 +++++++++++++++++++++to 0.5
Heightened Def Con from 0.5 ++++++++++++++++++++++to 0.5
Heightened Def Con from 0.5 +++++++++++++++++++to 0.5
Heightened Def Con from 0.5 +++++++++++++++++++++to 0.5
Heightened Def Con from 0.5 ++++++++++++++++++++++to 0.5
Heightened Def Con from 0.5 ++++++++++++++++++to 0.5
Heightened Def Con from 0.5 ++++++++++++++++++++++to 0.5
Heightened Def Con from 0.5 +++++++++++++++++++++to 0.5
Heightened Def Con from 0.5 +++++++++++++++++++++to 0.5
Heightened Def Con from 0.5 ++++++++++++++++++++++to 0.5
Heightened Def Con from 0.5 ++++++++++++++++to 0.5
Heightened Def Con from 0.5 ++++++++++++++++++++++to 0.5
Heightened Def Con from 0.5 ++++++++++++++++++to 0.5
Heightened Def Con from 0.5 ++++++++++++++++++++++to 0.5
Heightened Def Con from 0.5 +++++++++++++++++++++to 0.5
Heightened Def Con from 0.5 +++++++++++++++++++++to 0.5
Heightened Def Con from 0.5 ++++++++++++++++++++++to 0.5
Heightened Def Con from 0.5 +++++++++++++++++++to 0.5
Heightened Def Con from 0.5 ++++++++++++++++++++++++to 0.5
Heightened Def Con from 0.5 ++++++++++++++++++++to 0.5
Heightened Def Con from 0.5 +++++++++++++++++++++to 0.5
Heightened Def Con from 0.5 ++++++++++++++++++++to 0.5
Heightened Def Con from 0.5 +++++++++++++++++++++to 0.5
Heightened Def Con from 0.5 +++++++++++++++++++++to 0.5
Heightened Def Con from 0.5 ++++++++++++++++++++to 0.5
Heightened Def Con from 0.5 +++++++++++++++++++++to 0.5
Heightened Def Con from 0.5 +++++++++++++++++++++to 0.5
Heightened Def Con from 0.5 +++++++++++++++++++++to 0.5
Heightened Def Con from 0.5 +++++++++++++++++++++to 0.5
Heightened Def Con from 0.5 +++++++++++++++++++to 0.5
Heightened Def Con from 0.5 +++++++++++++++++++++to 0.5
Heightened Def Con from 0.5 +++++++++++++++++++to 0.5
Heightened Def Con from 0.5 +++++++++++++++++++++to 0.5
Heightened Def Con from 0.5 ++++++++++++++++++++to 0.5
Heightened Def Con from 0.5 +++++++++++++++++++++to 0.5
Heightened Def Con from 0.5 +++++++++++++++++++to 0.5
Heightened Def Con from 0.5 +++++++++++++++++++++to 0.5
Heightened Def Con from 0.5 +++++++++++++++++++to 0.5
Heightened Def Con from 0.5 +++++++++++++++++++++to 0.5
Heightened Def Con from 0.5 +++++++++++++++++++++to 0.5
Heightened Def Con from 0.5 +++++++++++++++++++++to 0.5
Heightened Def Con from 0.5 ++++++++++++++++++++to 0.5
Heightened Def Con from 0.5 ++++++++++++++++++++++++to 0.5
Heightened Def Con from 0.5 ++++++++++++++++++to 0.5
Heightened Def Con from 0.5 +++++++++++++++++++++to 0.5
Heightened Def Con from 0.5 ++++++++++++++++++++to 0.5
Heightened Def Con from 0.5 +++++++++++++++++++++to 0.5
Heightened Def Con from 0.5 +++++++++++++++++++to 0.5
Heightened Def Con from 0.5 +++++++++++++++++++++to 0.5
Heightened Def Con from 0.5 ++++++++++++++++++++to 0.5
Heightened Def Con from 0.5 +++++++++++++++++++++to 0.5
Heightened Def Con from 0.5 ++++++++++++++++++++to 0.5
Heightened Def Con from 0.5 +++++++++++++++++++++to 0.5
Heightened Def Con from 0.5 +++++++++++++++++++to 0.5
Heightened Def Con from 0.5 +++++++++++++++++++++to 0.5
Heightened Def Con from 0.5 ++++++++++++++++++++to 0.5
Heightened Def Con from 0.5 +++++++++++++++++++++to 0.5
Heightened Def Con from 0.5 +++++++++++++++++++to 0.5
Heightened Def Con from 0.5 +++++++++++++++++++++to 0.5
Heightened Def Con from 0.5 ++++++++++++++++++++to 0.5
Heightened Def Con from 0.5 +++++++++++++++++++++to 0.5
Heightened Def Con from 0.5 ++++++++++++++++++++to 0.5
Heightened Def Con from 0.5 +++++++++++++++++++++to 0.5
Heightened Def Con from 0.5 +++++++++++++++++++to 0.5
Heightened Def Con from 0.5 +++++++++++++++++++++to 0.5
Heightened Def Con from 0.5 ++++++++++++++++++++to 0.5
Heightened Def Con from 0.5 +++++++++++++++++++++to 0.5
Heightened Def Con from 0.5 ++++++++++++++++++++to 0.5
Heightened Def Con from 0.5 +++++++++++++++++++++to 0.5
Heightened Def Con from 0.5 +++++++++++++++++++to 0.5
Heightened Def Con from 0.5 +++++++++++++++++++++to 0.5
Heightened Def Con from 0.5 ++++++++++++++++++++to 0.5
Heightened Def Con from 0.5 +++++++++++++++++++++to 0.5
Heightened Def Con from 0.5 ++++++++++++++++++++to 0.5
Heightened Def Con from 0.5 +++++++++++++++++++++to 0.5
Heightened Def Con from 0.5 ++++++++++++++++++++to 0.5
Heightened Def Con from 0.5 +++++++++++++++++++++to 0.5
Heightened Def Con from 0.5 +++++++++++++++++++to 0.5
Heightened Def Con from 0.5 +++++++++++++++++++++to 0.5
Heightened Def Con from 0.5 ++++++++++++++++++++to 0.5
Heightened Def Con from 0.5 +++++++++++++++++++++to 0.5
Heightened Def Con from 0.5 ++++++++++++++++++++to 0.5
Heightened Def Con from 0.5 +++++++++++++++++++++to 0.5
Heightened Def Con from 0.5 ++++++++++++++++++++to 0.5
Heightened Def Con from 0.5 +++++++++++++++++++++to 0.5
Heightened Def Con from 0.5 ++++++++++++++++++++to 0.5
Heightened Def Con from 0.5 +++++++++++++++++++++to 0.5
Heightened Def Con from 0.5 +++++++++++++++++++to 0.5
Heightened Def Con from 0.5 +++++++++++++++++++++to 0.5
Heightened Def Con from 0.5 ++++++++++++++++++++to 0.5
Heightened Def Con from 0.5 +++++++++++++++++++++to 0.5
Heightened Def Con from 0.5 ++++++++++++++++++++to 0.5
Heightened Def Con from 0.5 +++++++++++++++++++++to 0.5
Heightened Def Con from 0.5 ++++++++++++++++++++to 0.5
Heightened Def Con from 0.5 +++++++++++++++++++++to 0.5
Heightened Def Con from 0.5 ++++++++++++++++++++to 0.5
Heightened Def Con from 0.5 +++++++++++++++++++++to 0.5
Heightened Def Con from 0.5 ++++++++++++++++++++to 0.5
Heightened Def Con from 0.5 +++++++++++++++++++++to 0.5
Heightened Def Con from 0.5 ++++++++++++++++++++to 0.5
Heightened Def Con from 0.5 +++++++++++++++++++++to 0.5
Heightened Def Con from 0.5 ++++++++++++++++++++to 0.5
Heightened Def Con from 0.5 +++++++++++++++++++++to 0.5
Heightened Def Con from 0.5 ++++++++++++++++++++to 0.5
Heightened Def Con from 0.5 +++++++++++++++++++++to 0.5
Heightened Def Con from 0.5 ++++++++++++++++++++to 0.5
Heightened Def Con from 0.5 +++++++++++++++++++++to 0.5
Heightened Def Con from 0.5 ++++++++++++++++++++to 0.5
Heightened Def Con from 0.5 +++++++++++++++++++++to 0.5
Heightened Def Con from 0.5 ++++++++++++++++++++to 0.5
Heightened Def Con from 0.5 +++++++++++++++++++++to 0.5
Heightened Def Con from 0.5 ++++++++++++++++++++to 0.5
Heightened Def Con from 0.5 +++++++++++++++++++++to 0.5
Heightened Def Con from 0.5 ++++++++++++++++++++to 0.5
Heightened Def Con from 0.5 +++++++++++++++++++++to 0.5
Heightened Def Con from 0.5 ++++++++++++++++++++to 0.5
Heightened Def Con from 0.5 +++++++++++++++++++++to 0.5
Heightened Def Con from 0.5 ++++++++++++++++++++to 0.5
Heightened Def Con from 0.5 +++++++++++++++++++++to 0.5
Heightened Def Con from 0.5 ++++++++++++++++++++to 0.5
Heightened Def Con from 0.5 +++++++++++++++++++++to 0.5
Heightened Def Con from 0.5 ++++++++++++++++++++to 0.5
Heightened Def Con from 0.5 +++++++++++++++++++++to 0.5
Heightened Def Con from 0.5 ++++++++++++++++++++to 0.5
Heightened Def Con from 0.5 +++++++++++++++++++++to 0.5
Heightened Def Con from 0.5 ++++++++++++++++++++to 0.5
Heightened Def Con from 0.5 +++++++++++++++++++++to 0.5
Heightened Def Con from 0.5 ++++++++++++++++++++to 0.5
Heightened Def Con from 0.5 +++++++++++++++++++++to 0.5
Heightened Def Con from 0.5 ++++++++++++++++++++to 0.5
Heightened Def Con from 0.5 +++++++++++++++++++++to 0.5
Heightened Def Con from 0.5 ++++++++++++++++++++to 0.5
Heightened Def Con from 0.5 +++++++++++++++++++++to 0.5
Heightened Def Con from 0.5 ++++++++++++++++++++to 0.5
Heightened Def Con from 0.5 +++++++++++++++++++++to 0.5
Heightened Def Con from 0.5 +++++++++++++++++++++to 0.5
Heightened Def Con from 0.5 ++++++++++++++++++++to 0.5
Heightened Def Con from 0.5 +++++++++++++++++++++to 0.5
Heightened Def Con from 0.5 ++++++++++++++++++++to 0.5
Heightened Def Con from 0.5 +++++++++++++++++++++to 0.5
Heightened Def Con from 0.5 ++++++++++++++++++++to 0.5
Heightened Def Con from 0.5 +++++++++++++++++++++to 0.5
Heightened Def Con from 0.5 ++++++++++++++++++++to 0.5
Heightened Def Con from 0.5 +++++++++++++++++++++to 0.5
Heightened Def Con from 0.5 ++++++++++++++++++++to 0.5
Heightened Def Con from 0.5 +++++++++++++++++++++to 0.5
Heightened Def Con from 0.5 +++++++++++++++++++++to 0.5
Heightened Def Con from 0.5 ++++++++++++++++++++to 0.5
Heightened Def Con from 0.5 +++++++++++++++++++++to 0.5
Heightened Def Con from 0.5 ++++++++++++++++++++to 0.5
Heightened Def Con from 0.5 +++++++++++++++++++++to 0.5
Heightened Def Con from 0.5 ++++++++++++++++++++to 0.5
Heightened Def Con from 0.5 +++++++++++++++++++++to 0.5
Heightened Def Con from 0.5 +++++++++++++++++++++to 0.5
Heightened Def Con from 0.5 ++++++++++++++++++++to 0.5
Heightened Def Con from 0.5 +++++++++++++++++++++to 0.5
Heightened Def Con from 0.5 ++++++++++++++++++++to 0.5
Heightened Def Con from 0.5 +++++++++++++++++++++to 0.5
Heightened Def Con from 0.5 ++++++++++++++++++++to 0.5
Heightened Def Con from 0.5 +++++++++++++++++++++to 0.5
Heightened Def Con from 0.5 +++++++++++++++++++++to 0.5
Heightened Def Con from 0.5 ++++++++++++++++++++to 0.5
Heightened Def Con from 0.5 +++++++++++++++++++++to 0.5
Heightened Def Con from 0.5 ++++++++++++++++++++to 0.5
Heightened Def Con from 0.5 +++++++++++++++++++++to 0.5
Heightened Def Con from 0.5 +++++++++++++++++++++to 0.5
Heightened Def Con from 0.5 ++++++++++++++++++++to 0.5
Heightened Def Con from 0.5 +++++++++++++++++++++to 0.5
Heightened Def Con from 0.5 ++++++++++++++++++++to 0.5
Heightened Def Con from 0.5 +++++++++++++++++++++to 0.5
Heightened Def Con from 0.5 +++++++++++++++++++++to 0.5
Heightened Def Con from 0.5 ++++++++++++++++++++to 0.5
Heightened Def Con from 0.5 +++++++++++++++++++++to 0.5
Heightened Def Con from 0.5 ++++++++++++++++++++to 0.5
Heightened Def Con from 0.5 +++++++++++++++++++++to 0.5
Heightened Def Con from 0.5 +++++++++++++++++++++to 0.5
Heightened Def Con from 0.5 ++++++++++++++++++++to 0.5
Heightened Def Con from 0.5 +++++++++++++++++++++to 0.5
Heightened Def Con from 0.5 ++++++++++++++++++++to 0.5
Heightened Def Con from 0.5 +++++++++++++++++++++to 0.5
Heightened Def Con from 0.5 +++++++++++++++++++++to 0.5
Heightened Def Con from 0.5 ++++++++++++++++++++to 0.5
Heightened Def Con from 0.5 +++++++++++++++++++++to 0.5
Heightened Def Con from 0.5 +++++++++++++++++++++to 0.5
Heightened Def Con from 0.5 ++++++++++++++++++++to 0.5
Heightened Def Con from 0.5 +++++++++++++++++++++to 0.5
Heightened Def Con from 0.5 +++++++++++++++++++++to 0.5
Heightened Def Con from 0.5 ++++++++++++++++++++to 0.5
Heightened Def Con from 0.5 +++++++++++++++++++++to 0.5
Heightened Def Con from 0.5 +++++++++++++++++++++to 0.5
Heightened Def Con from 0.5 ++++++++++++++++++++to 0.5
Heightened Def Con from 0.5 +++++++++++++++++++++to 0.5
Heightened Def Con from 0.5 +++++++++++++++++++++to 0.5
Heightened Def Con from 0.5 ++++++++++++++++++++to 0.5
Heightened Def Con from 0.5 +++++++++++++++++++++to 0.5
Heightened Def Con from 0.5 +++++++++++++++++++++to 0.5
Heightened Def Con from 0.5 ++++++++++++++++++++to 0.5
Heightened Def Con from 0.5 +++++++++++++++++++++to 0.5
Heightened Def Con from 0.5 +++++++++++++++++++++to 0.5
Heightened Def Con from 0.5 ++++++++++++++++++++to 0.5
Heightened Def Con from 0.5 +++++++++++++++++++++to 0.5
Heightened Def Con from 0.5 +++++++++++++++++++++to 0.5
Heightened Def Con from 0.5 ++++++++++++++++++++to 0.5
Heightened Def Con from 0.5 +++++++++++++++++++++to 0.5
Heightened Def Con from 0.5 +++++++++++++++++++++to 0.5
Heightened Def Con from 0.5 +++++++++++++++++++++to 0.5
Heightened Def Con from 0.5 ++++++++++++++++++++to 0.5
Heightened Def Con from 0.5 +++++++++++++++++++++to 0.5
Heightened Def Con from 0.5 +++++++++++++++++++++to 0.5
Heightened Def Con from 0.5 ++++++++++++++++++++to 0.5
Heightened Def Con from 0.5 +++++++++++++++++++++to 0.5
Heightened Def Con from 0.5 +++++++++++++++++++++to 0.5
Heightened Def Con from 0.5 +++++++++++++++++++++to 0.5
Heightened Def Con from 0.5 ++++++++++++++++++++to 0.5
Heightened Def Con from 0.5 +++++++++++++++++++++to 0.5
Heightened Def Con from 0.5 +++++++++++++++++++++to 0.5
Heightened Def Con from 0.5 +++++++++++++++++++++to 0.5
Heightened Def Con from 0.5 ++++++++++++++++++++to 0.5
Heightened Def Con from 0.5 +++++++++++++++++++++to 0.5
Heightened Def Con from 0.5 +++++++++++++++++++++to 0.5
Heightened Def Con from 0.5 +++++++++++++++++++++to 0.5
Heightened Def Con from 0.5 ++++++++++++++++++++to 0.5
Heightened Def Con from 0.5 +++++++++++++++++++++to 0.5
Heightened Def Con from 0.5 +++++++++++++++++++++to 0.5
Heightened Def Con from 0.5 +++++++++++++++++++++to 0.5
Heightened Def Con from 0.5 +++++++++++++++++++++to 0.5
Heightened Def Con from 0.5 ++++++++++++++++++++to 0.5
Heightened Def Con from 0.5 +++++++++++++++++++++to 0.5
Heightened Def Con from 0.5 +++++++++++++++++++++to 0.5
Heightened Def Con from 0.5 +++++++++++++++++++++to 0.5
Heightened Def Con from 0.5 +++++++++++++++++++++to 0.5
Heightened Def Con from 0.5 +++++++++++++++++++++to 0.5
Heightened Def Con from 0.5 ++++++++++++++++++++to 0.5
Heightened Def Con from 0.5 +++++++++++++++++++++to 0.5
Heightened Def Con from 0.5 +++++++++++++++++++++to 0.5
Heightened Def Con from 0.5 +++++++++++++++++++++to 0.5
Heightened Def Con from 0.5 +++++++++++++++++++++to 0.5
Heightened Def Con from 0.5 +++++++++++++++++++++to 0.5
Heightened Def Con from 0.5 +++++++++++++++++++++to 0.5
Heightened Def Con from 0.5 ++++++++++++++++++++to 0.5
Heightened Def Con from 0.5 +++++++++++++++++++++to 0.5
Heightened Def Con from 0.5 +++++++++++++++++++++to 0.5
Heightened Def Con from 0.5 +++++++++++++++++++++to 0.5
Heightened Def Con from 0.5 +++++++++++++++++++++to 0.5
Heightened Def Con from 0.5 +++++++++++++++++++++to 0.5
Heightened Def Con from 0.5 +++++++++++++++++++++to 0.5
Heightened Def Con from 0.5 +++++++++++++++++++++to 0.5
Heightened Def Con from 0.5 +++++++++++++++++++++to 0.5
Heightened Def Con from 0.5 +++++++++++++++++++++to 0.5
Heightened Def Con from 0.5 +++++++++++++++++++++to 0.5
Heightened Def Con from 0.5 +++++++++++++++++++++to 0.5
Heightened Def Con from 0.5 +++++++++++++++++++++to 0.5
Heightened Def Con from 0.5 +++++++++++++++++++++to 0.5
Heightened Def Con from 0.5 +++++++++++++++++++++to 0.5
Heightened Def Con from 0.5 +++++++++++++++++++++to 0.5
Heightened Def Con from 0.5 +++++++++++++++++++++to 0.5
Heightened Def Con from 0.5 +++++++++++++++++++++to 0.5
Heightened Def Con from 0.5 +++++++++++++++++++++to 0.5
Heightened Def Con from 0.5 +++++++++++++++++++++to 0.5
Heightened Def Con from 0.5 +++++++++++++++++++++to 0.5
Heightened Def Con from 0.5 +++++++++++++++++++++to 0.5
Heightened Def Con from 0.5 +++++++++++++++++++++to 0.5
Heightened Def Con from 0.5 +++++++++++++++++++++to 0.5
Heightened Def Con from 0.5 +++++++++++++++++++++to 0.5
Heightened Def Con from 0.5 +++++++++++++++++++++to 0.5
Heightened Def Con from 0.5 +++++++++++++++++++++to 0.5
Heightened Def Con from 0.5 +++++++++++++++++++++to 0.5
Heightened Def Con from 0.5 ++++++++++++++++to 0.5
Heightened Def Con from 0.5 +++++++++++++++++++++to 0.5
Heightened Def Con from 0.5 +++++++++++++++++to 0.5
Heightened Def Con from 0.5 +++++++++++++++++++++to 0.5
Heightened Def Con from 0.5 ++++++++++++++++to 0.5
Heightened Def Con from 0.5 +++++++++++++++++++++to 0.5
Heightened Def Con from 0.5 +++++++++++++++++to 0.5
Heightened Def Con from 0.5 +++++++++++++++++++++to 0.5
Heightened Def Con from 0.5 +++++++++++++++++to 0.5
Heightened Def Con from 0.5 +++++++++++++++++++++to 0.5
Heightened Def Con from 0.5 +++++++++++++++++to 0.5
Heightened Def Con from 0.5 +++++++++++++++++++++to 0.5
Heightened Def Con from 0.5 +++++++++++++++++to 0.5
Heightened Def Con from 0.5 +++++++++++++++++++++to 0.5
Heightened Def Con from 0.5 +++++++++++++++++to 0.5
Heightened Def Con from 0.5 +++++++++++++++++++++to 0.5
Heightened Def Con from 0.5 +++++++++++++++++to 0.5
Heightened Def Con from 0.5 +++++++++++++++++++++to 0.5
Heightened Def Con from 0.5 ++++++++++++++++++to 0.5
Heightened Def Con from 0.5 +++++++++++++++++++++to 0.5
Heightened Def Con from 0.5 +++++++++++++++to 0.5
Heightened Def Con from 0.5 +++++++++++++++++++++to 0.5
Heightened Def Con from 0.5 ++++++++++++++++++to 0.5
Heightened Def Con from 0.5 +++++++++++++++++++++to 0.5
Heightened Def Con from 0.5 +++++++++++++++++to 0.5
Heightened Def Con from 0.5 +++++++++++++++++++++to 0.5
Heightened Def Con from 0.5 +++++++++++++++++to 0.5
Heightened Def Con from 0.5 +++++++++++++++++++++to 0.5
Heightened Def Con from 0.5 ++++++++++++++++++to 0.5
Heightened Def Con from 0.5 +++++++++++++++++++++to 0.5
Heightened Def Con from 0.5 +++++++++++++++++to 0.5
Heightened Def Con from 0.5 +++++++++++++++++++++to 0.5
Heightened Def Con from 0.5 ++++++++++++++++++to 0.5
Heightened Def Con from 0.5 +++++++++++++++++++++to 0.5
Heightened Def Con from 0.5 +++++++++++++++++to 0.5
Heightened Def Con from 0.5 +++++++++++++++++++++to 0.5
Heightened Def Con from 0.5 ++++++++++++++++++to 0.5
Heightened Def Con from 0.5 +++++++++++++++++++++to 0.5
Heightened Def Con from 0.5 ++++++++++++++++++to 0.5
Heightened Def Con from 0.5 +++++++++++++++++++++to 0.5
Heightened Def Con from 0.5 +++++++++++++++++to 0.5
Heightened Def Con from 0.5 +++++++++++++++++++++to 0.5
Heightened Def Con from 0.5 ++++++++++++++++++to 0.5
Heightened Def Con from 0.5 +++++++++++++++++++++to 0.5
Heightened Def Con from 0.5 ++++++++++++++++++to 0.5
Heightened Def Con from 0.5 +++++++++++++++++++++to 0.5
Heightened Def Con from 0.5 ++++++++++++++++++to 0.5
Heightened Def Con from 0.5 +++++++++++++++++++++to 0.5
Heightened Def Con from 0.5 ++++++++++++++++++to 0.5
Heightened Def Con from 0.5 +++++++++++++++++++++to 0.5
Heightened Def Con from 0.5 ++++++++++++++++++to 0.5
Heightened Def Con from 0.5 +++++++++++++++++++++to 0.5
Heightened Def Con from 0.5 ++++++++++++++++++to 0.5
Heightened Def Con from 0.5 +++++++++++++++++++++to 0.5
Heightened Def Con from 0.5 ++++++++++++++++++to 0.5
Heightened Def Con from 0.5 +++++++++++++++++++++to 0.5
Heightened Def Con from 0.5 ++++++++++++++++++to 0.5
Heightened Def Con from 0.5 +++++++++++++++++++++to 0.5
Heightened Def Con from 0.5 ++++++++++++++++++to 0.5
Heightened Def Con from 0.5 +++++++++++++++++++++to 0.5
Heightened Def Con from 0.5 +++++++++++++++++++to 0.5
Heightened Def Con from 0.5 +++++++++++++++++++++to 0.5
Heightened Def Con from 0.5 ++++++++++++++++to 0.5
Heightened Def Con from 0.5 +++++++++++++++++++++to 0.5
Heightened Def Con from 0.5 +++++++++++++++++++to 0.5
Heightened Def Con from 0.5 +++++++++++++++++++++to 0.5
Heightened Def Con from 0.5 +++++++++++++++++to 0.5
Heightened Def Con from 0.5 +++++++++++++++++++++to 0.5
Heightened Def Con from 0.5 +++++++++++++++++++to 0.5
Heightened Def Con from 0.5 +++++++++++++++++++++to 0.5
Heightened Def Con from 0.5 +++++++++++++++++to 0.5
Heightened Def Con from 0.5 +++++++++++++++++++++to 0.5
Heightened Def Con from 0.5 +++++++++++++++++++to 0.5
Heightened Def Con from 0.5 +++++++++++++++++++++to 0.5
Heightened Def Con from 0.5 +++++++++++++++++to 0.5
Heightened Def Con from 0.5 +++++++++++++++++++++to 0.5
Heightened Def Con from 0.5 +++++++++++++++++++to 0.5
Heightened Def Con from 0.5 +++++++++++++++++++++to 0.5
Heightened Def Con from 0.5 ++++++++++++++++++to 0.5
Heightened Def Con from 0.5 +++++++++++++++++++++to 0.5
Heightened Def Con from 0.5 ++++++++++++++++++to 0.5
Heightened Def Con from 0.5 +++++++++++++++++++++to 0.5
Heightened Def Con from 0.5 +++++++++++++++++++to 0.5
Heightened Def Con from 0.5 +++++++++++++++++++++to 0.5
Heightened Def Con from 0.5 ++++++++++++++++++to 0.5
Heightened Def Con from 0.5 +++++++++++++++++++++to 0.5
Heightened Def Con from 0.5 +++++++++++++++++++to 0.5
Heightened Def Con from 0.5 +++++++++++++++++++++to 0.5
Heightened Def Con from 0.5 ++++++++++++++++++to 0.5
Heightened Def Con from 0.5 +++++++++++++++++++++to 0.5
Heightened Def Con from 0.5 +++++++++++++++++++to 0.5
Heightened Def Con from 0.5 +++++++++++++++++++++to 0.5
Heightened Def Con from 0.5 ++++++++++++++++++to 0.5
Heightened Def Con from 0.5 +++++++++++++++++++++to 0.5
Heightened Def Con from 0.5 +++++++++++++++++++to 0.5
Heightened Def Con from 0.5 +++++++++++++++++++++to 0.5
Heightened Def Con from 0.5 ++++++++++++++++++to 0.5
Heightened Def Con from 0.5 +++++++++++++++++++++to 0.5
Heightened Def Con from 0.5 +++++++++++++++++++to 0.5
Heightened Def Con from 0.5 +++++++++++++++++++++to 0.5
Heightened Def Con from 0.5 +++++++++++++++++++to 0.5
Heightened Def Con from 0.5 +++++++++++++++++++++to 0.5
Heightened Def Con from 0.5 ++++++++++++++++++to 0.5
Heightened Def Con from 0.5 +++++++++++++++++++++to 0.5
Heightened Def Con from 0.5 +++++++++++++++++++to 0.5
Heightened Def Con from 0.5 +++++++++++++++++++++to 0.5
Heightened Def Con from 0.5 +++++++++++++++++++to 0.5
Heightened Def Con from 0.5 +++++++++++++++++++++to 0.5
Heightened Def Con from 0.5 ++++++++++++++++++to 0.5
Heightened Def Con from 0.5 +++++++++++++++++++++to 0.5
Heightened Def Con from 0.5 +++++++++++++++++++to 0.5
Heightened Def Con from 0.5 +++++++++++++++++++++to 0.5
Heightened Def Con from 0.5 +++++++++++++++++++to 0.5
Heightened Def Con from 0.5 +++++++++++++++++++++to 0.5
Heightened Def Con from 0.5 +++++++++++++++++++to 0.5
Heightened Def Con from 0.5 +++++++++++++++++++++to 0.5
Heightened Def Con from 0.5 +++++++++++++++++++to 0.5
Heightened Def Con from 0.5 +++++++++++++++++++++to 0.5
Heightened Def Con from 0.5 ++++++++++++++++++to 0.5
Heightened Def Con from 0.5 +++++++++++++++++++++to 0.5
Heightened Def Con from 0.5 +++++++++++++++++++to 0.5
Heightened Def Con from 0.5 +++++++++++++++++++++to 0.5
Heightened Def Con from 0.5 +++++++++++++++++++to 0.5
Heightened Def Con from 0.5 +++++++++++++++++++++to 0.5
Heightened Def Con from 0.5 +++++++++++++++++++to 0.5
Heightened Def Con from 0.5 +++++++++++++++++++++to 0.5
Heightened Def Con from 0.5 +++++++++++++++++++to 0.5
Heightened Def Con from 0.5 +++++++++++++++++++++to 0.5
Heightened Def Con from 0.5 +++++++++++++++++++to 0.5
Heightened Def Con from 0.5 +++++++++++++++++++++to 0.5
Heightened Def Con from 0.5 +++++++++++++++++++to 0.5
Heightened Def Con from 0.5 +++++++++++++++++++++to 0.5
Heightened Def Con from 0.5 +++++++++++++++++++to 0.5
Heightened Def Con from 0.5 +++++++++++++++++++++to 0.5
Heightened Def Con from 0.5 +++++++++++++++++++to 0.5
Heightened Def Con from 0.5 +++++++++++++++++++++to 0.5
Heightened Def Con from 0.5 +++++++++++++++++++to 0.5
Heightened Def Con from 0.5 +++++++++++++++++++++to 0.5
Heightened Def Con from 0.5 +++++++++++++++++++to 0.5
Heightened Def Con from 0.5 +++++++++++++++++++++to 0.5
Heightened Def Con from 0.5 ++++++++++++++++++++to 0.5
Heightened Def Con from 0.5 +++++++++++++++++++++to 0.5
Heightened Def Con from 0.5 ++++++++++++++++to 0.5
Heightened Def Con from 0.5 +++++++++++++++++++++to 0.5
Heightened Def Con from 0.5 ++++++++++++++++++++to 0.5
Heightened Def Con from 0.5 +++++++++++++++++++++to 0.5
Heightened Def Con from 0.5 +++++++++++++++++to 0.5
Heightened Def Con from 0.5 +++++++++++++++++++++to 0.5
Heightened Def Con from 0.5 ++++++++++++++++++++to 0.5
Heightened Def Con from 0.5 +++++++++++++++++++++to 0.5
Heightened Def Con from 0.5 +++++++++++++++++to 0.5
Heightened Def Con from 0.5 +++++++++++++++++++++to 0.5
Heightened Def Con from 0.5 ++++++++++++++++++++to 0.5
Heightened Def Con from 0.5 +++++++++++++++++++++to 0.5
Heightened Def Con from 0.5 +++++++++++++++++to 0.5
Heightened Def Con from 0.5 +++++++++++++++++++++to 0.5
Heightened Def Con from 0.5 ++++++++++++++++++++to 0.5
Heightened Def Con from 0.5 +++++++++++++++++++++to 0.5
Heightened Def Con from 0.5 ++++++++++++++++++to 0.5
Heightened Def Con from 0.5 +++++++++++++++++++++to 0.5
Heightened Def Con from 0.5 ++++++++++++++++++++to 0.5
Heightened Def Con from 0.5 +++++++++++++++++++++to 0.5
Heightened Def Con from 0.5 +++++++++++++++++to 0.5
Heightened Def Con from 0.5 +++++++++++++++++++++to 0.5
Heightened Def Con from 0.5 ++++++++++++++++++++to 0.5
Heightened Def Con from 0.5 +++++++++++++++++++++to 0.5
Heightened Def Con from 0.5 ++++++++++++++++++to 0.5
Heightened Def Con from 0.5 +++++++++++++++++++++to 0.5
Heightened Def Con from 0.5 ++++++++++++++++++++to 0.5
Heightened Def Con from 0.5 +++++++++++++++++++++to 0.5
Heightened Def Con from 0.5 ++++++++++++++++++to 0.5
Heightened Def Con from 0.5 +++++++++++++++++++++to 0.5
Heightened Def Con from 0.5 ++++++++++++++++++++to 0.5
Heightened Def Con from 0.5 +++++++++++++++++++++to 0.5
Heightened Def Con from 0.5 ++++++++++++++++++to 0.5
Heightened Def Con from 0.5 +++++++++++++++++++++to 0.5
Heightened Def Con from 0.5 ++++++++++++++++++++to 0.5
Heightened Def Con from 0.5 +++++++++++++++++++++to 0.5
Heightened Def Con from 0.5 +++++++++++++++++++to 0.5
Heightened Def Con from 0.5 +++++++++++++++++++++to 0.5
Heightened Def Con from 0.5 +++++++++++++++++++to 0.5
Heightened Def Con from 0.5 +++++++++++++++++++++to 0.5
Heightened Def Con from 0.5 ++++++++++++++++++++to 0.5
Heightened Def Con from 0.5 +++++++++++++++++++++to 0.5
Heightened Def Con from 0.5 +++++++++++++++++++to 0.5
Heightened Def Con from 0.5 +++++++++++++++++++++to 0.5
Heightened Def Con from 0.5 +++++++++++++++++++to 0.5
Heightened Def Con from 0.5 +++++++++++++++++++++to 0.5
Heightened Def Con from 0.5 ++++++++++++++++++++to 0.5
Heightened Def Con from 0.5 +++++++++++++++++++++to 0.5
Heightened Def Con from 0.5 +++++++++++++++++++to 0.5
Heightened Def Con from 0.5 +++++++++++++++++++++to 0.5
Heightened Def Con from 0.5 ++++++++++++++++++++to 0.5
Heightened Def Con from 0.5 +++++++++++++++++++++to 0.5
Heightened Def Con from 0.5 +++++++++++++++++++to 0.5
Heightened Def Con from 0.5 +++++++++++++++++++++to 0.5
Heightened Def Con from 0.5 +++++++++++++++++++to 0.5
Heightened Def Con from 0.5 +++++++++++++++++++++to 0.5
Heightened Def Con from 0.5 ++++++++++++++++++++to 0.5
Heightened Def Con from 0.5 +++++++++++++++++++++to 0.5
Heightened Def Con from 0.5 +++++++++++++++++++to 0.5
Heightened Def Con from 0.5 +++++++++++++++++++++to 0.5
Heightened Def Con from 0.5 ++++++++++++++++++++to 0.5
Heightened Def Con from 0.5 +++++++++++++++++++++to 0.5
Heightened Def Con from 0.5 +++++++++++++++++++to 0.5
Heightened Def Con from 0.5 +++++++++++++++++++++to 0.5
Heightened Def Con from 0.5 ++++++++++++++++++++to 0.5
Heightened Def Con from 0.5 +++++++++++++++++++++to 0.5
Heightened Def Con from 0.5 +++++++++++++++++++to 0.5
Heightened Def Con from 0.5 +++++++++++++++++++++to 0.5
Heightened Def Con from 0.5 ++++++++++++++++++++to 0.5
Heightened Def Con from 0.5 +++++++++++++++++++++to 0.5
Heightened Def Con from 0.5 +++++++++++++++++++to 0.5
Heightened Def Con from 0.5 +++++++++++++++++++++to 0.5
Heightened Def Con from 0.5 ++++++++++++++++++++to 0.5
Heightened Def Con from 0.5 +++++++++++++++++++++to 0.5
Heightened Def Con from 0.5 +++++++++++++++++++to 0.5
Heightened Def Con from 0.5 +++++++++++++++++++++to 0.5
Heightened Def Con from 0.5 ++++++++++++++++++++to 0.5
Heightened Def Con from 0.5 +++++++++++++++++++++to 0.5
Heightened Def Con from 0.5 +++++++++++++++++++to 0.5
Heightened Def Con from 0.5 +++++++++++++++++++++to 0.5
Heightened Def Con from 0.5 ++++++++++++++++++++to 0.5
Heightened Def Con from 0.5 +++++++++++++++++++++to 0.5
Heightened Def Con from 0.5 ++++++++++++++++++++to 0.5
Heightened Def Con from 0.5 +++++++++++++++++++++to 0.5
Heightened Def Con from 0.5 +++++++++++++++++++to 0.5
Heightened Def Con from 0.5 +++++++++++++++++++++to 0.5
Heightened Def Con from 0.5 ++++++++++++++++++++to 0.5
Heightened Def Con from 0.5 +++++++++++++++++++++to 0.5
Heightened Def Con from 0.5 ++++++++++++++++++++to 0.5
Heightened Def Con from 0.5 +++++++++++++++++++++to 0.5
Heightened Def Con from 0.5 +++++++++++++++++++to 0.5
Heightened Def Con from 0.5 +++++++++++++++++++++to 0.5
Heightened Def Con from 0.5 ++++++++++++++++++++to 0.5
Heightened Def Con from 0.5 +++++++++++++++++++++to 0.5
Heightened Def Con from 0.5 ++++++++++++++++++++to 0.5
Heightened Def Con from 0.5 +++++++++++++++++++++to 0.5
Heightened Def Con from 0.5 +++++++++++++++++++to 0.5
Heightened Def Con from 0.5 +++++++++++++++++++++to 0.5
Heightened Def Con from 0.5 ++++++++++++++++++++to 0.5
Heightened Def Con from 0.5 +++++++++++++++++++++to 0.5
Heightened Def Con from 0.5 ++++++++++++++++++++to 0.5
Heightened Def Con from 0.5 +++++++++++++++++++++to 0.5
Heightened Def Con from 0.5 +++++++++++++++++++to 0.5
Heightened Def Con from 0.5 +++++++++++++++++++++to 0.5
Heightened Def Con from 0.5 ++++++++++++++++++++to 0.5
Heightened Def Con from 0.5 +++++++++++++++++++++to 0.5
Heightened Def Con from 0.5 ++++++++++++++++++++to 0.5
Heightened Def Con from 0.5 +++++++++++++++++++++to 0.5
Heightened Def Con from 0.5 ++++++++++++++++++++to 0.5
Heightened Def Con from 0.5 +++++++++++++++++++++to 0.5
Heightened Def Con from 0.5 +++++++++++++++++++to 0.5
Heightened Def Con from 0.5 +++++++++++++++++++++to 0.5
Heightened Def Con from 0.5 ++++++++++++++++++++to 0.5
Heightened Def Con from 0.5 +++++++++++++++++++++to 0.5
Heightened Def Con from 0.5 ++++++++++++++++++++to 0.5
Heightened Def Con from 0.5 +++++++++++++++++++++to 0.5
Heightened Def Con from 0.5 ++++++++++++++++++++to 0.5
Heightened Def Con from 0.5 +++++++++++++++++++++to 0.5
Heightened Def Con from 0.5 ++++++++++++++++++++to 0.5
Heightened Def Con from 0.5 +++++++++++++++++++++to 0.5
Heightened Def Con from 0.5 +++++++++++++++++++to 0.5
Heightened Def Con from 0.5 +++++++++++++++++++++to 0.5
Heightened Def Con from 0.5 ++++++++++++++++++++to 0.5
Heightened Def Con from 0.5 +++++++++++++++++++++to 0.5
Heightened Def Con from 0.5 ++++++++++++++++++++to 0.5
Heightened Def Con from 0.5 +++++++++++++++++++++to 0.5
Heightened Def Con from 0.5 ++++++++++++++++++++to 0.5
Heightened Def Con from 0.5 +++++++++++++++++++++to 0.5
Heightened Def Con from 0.5 ++++++++++++++++++++to 0.5
Heightened Def Con from 0.5 +++++++++++++++++++++to 0.5
Heightened Def Con from 0.5 ++++++++++++++++++++to 0.5
Heightened Def Con from 0.5 +++++++++++++++++++++to 0.5
Heightened Def Con from 0.5 ++++++++++++++++++++to 0.5
Heightened Def Con from 0.5 +++++++++++++++++++++to 0.5
Heightened Def Con from 0.5 ++++++++++++++++++++to 0.5
Heightened Def Con from 0.5 +++++++++++++++++++++to 0.5
Heightened Def Con from 0.5 ++++++++++++++++++++to 0.5
Heightened Def Con from 0.5 +++++++++++++++++++++to 0.5
Heightened Def Con from 0.5 +++++++++++++++++++to 0.5
Heightened Def Con from 0.5 +++++++++++++++++++++to 0.5
Heightened Def Con from 0.5 ++++++++++++++++++++to 0.5
Heightened Def Con from 0.5 +++++++++++++++++++++to 0.5
Heightened Def Con from 0.5 ++++++++++++++++++++to 0.5
Heightened Def Con from 0.5 +++++++++++++++++++++to 0.5
Heightened Def Con from 0.5 ++++++++++++++++++++to 0.5
Heightened Def Con from 0.5 +++++++++++++++++++++to 0.5
Heightened Def Con from 0.5 ++++++++++++++++++++to 0.5
Heightened Def Con from 0.5 +++++++++++++++++++++to 0.5
Heightened Def Con from 0.5 ++++++++++++++++++++to 0.5
Heightened Def Con from 0.5 +++++++++++++++++++++to 0.5
Heightened Def Con from 0.5 ++++++++++++++++++++to 0.5
Heightened Def Con from 0.5 +++++++++++++++++++++to 0.5
Heightened Def Con from 0.5 ++++++++++++++++++++to 0.5
Heightened Def Con from 0.5 +++++++++++++++++++++to 0.5
Heightened Def Con from 0.5 ++++++++++++++++++++to 0.5
Heightened Def Con from 0.5 +++++++++++++++++++++to 0.5
Heightened Def Con from 0.5 +++++++++++++++++++++to 0.5
Heightened Def Con from 0.5 +++++++++++++++++++to 0.5
Heightened Def Con from 0.5 +++++++++++++++++++++to 0.5
Heightened Def Con from 0.5 ++++++++++++++++++++to 0.5
Heightened Def Con from 0.5 +++++++++++++++++++++to 0.5
Heightened Def Con from 0.5 ++++++++++++++++++++to 0.5
Heightened Def Con from 0.5 +++++++++++++++++++++to 0.5
Heightened Def Con from 0.5 +++++++++++++++++++++to 0.5
Heightened Def Con from 0.5 +++++++++++++++++++to 0.5
Heightened Def Con from 0.5 +++++++++++++++++++++to 0.5
Heightened Def Con from 0.5 ++++++++++++++++++++to 0.5
Heightened Def Con from 0.5 +++++++++++++++++++++to 0.5
Heightened Def Con from 0.5 +++++++++++++++++++++to 0.5
Heightened Def Con from 0.5 +++++++++++++++++++to 0.5
Heightened Def Con from 0.5 +++++++++++++++++++++to 0.5
Heightened Def Con from 0.5 +++++++++++++++++++++to 0.5
Heightened Def Con from 0.5 +++++++++++++++++++to 0.5
Heightened Def Con from 0.5 +++++++++++++++++++++to 0.5
Heightened Def Con from 0.5 +++++++++++++++++++++to 0.5
Heightened Def Con from 0.5 +++++++++++++++++++to 0.5
Heightened Def Con from 0.5 +++++++++++++++++++++to 0.5
Heightened Def Con from 0.5 +++++++++++++++++++++to 0.5
Heightened Def Con from 0.5 +++++++++++++++++++to 0.5
Heightened Def Con from 0.5 +++++++++++++++++++++to 0.5
Heightened Def Con from 0.5 +++++++++++++++++++++to 0.5
Heightened Def Con from 0.5 ++++++++++++++++++++to 0.5
Heightened Def Con from 0.5 +++++++++++++++++++++to 0.5
Heightened Def Con from 0.5 ++++++++++++++++++++to 0.5
Heightened Def Con from 0.5 +++++++++++++++++++++to 0.5
Heightened Def Con from 0.5 ++++++++++++++++++++to 0.5
Heightened Def Con from 0.5 +++++++++++++++++++++to 0.5
Heightened Def Con from 0.5 ++++++++++++++++++++to 0.5
Heightened Def Con from 0.5 +++++++++++++++++++++to 0.5
Heightened Def Con from 0.5 +++++++++++++++++++++to 0.5
Heightened Def Con from 0.5 ++++++++++++++++++++to 0.5
Heightened Def Con from 0.5 +++++++++++++++++++++to 0.5
Heightened Def Con from 0.5 ++++++++++++++++++++to 0.5
Heightened Def Con from 0.5 +++++++++++++++++++++to 0.5
Heightened Def Con from 0.5 ++++++++++++++++++++to 0.5
Heightened Def Con from 0.5 +++++++++++++++++++++to 0.5
Heightened Def Con from 0.5 +++++++++++++++++++++to 0.5
Heightened Def Con from 0.5 ++++++++++++++++++++to 0.5
Heightened Def Con from 0.5 +++++++++++++++++++++to 0.5
Heightened Def Con from 0.5 ++++++++++++++++++++to 0.5
Heightened Def Con from 0.5 +++++++++++++++++++++to 0.5
Heightened Def Con from 0.5 +++++++++++++++++++++to 0.5
Heightened Def Con from 0.5 ++++++++++++++++++++to 0.5
Heightened Def Con from 0.5 +++++++++++++++++++++to 0.5
Heightened Def Con from 0.5 ++++++++++++++++++++to 0.5
Heightened Def Con from 0.5 +++++++++++++++++++++to 0.5
Heightened Def Con from 0.5 ++++++++++++++++++++to 0.5
Heightened Def Con from 0.5 +++++++++++++++++++++to 0.5
Heightened Def Con from 0.5 +++++++++++++++++++++to 0.5
Heightened Def Con from 0.5 ++++++++++++++++++++to 0.5
Heightened Def Con from 0.5 +++++++++++++++++++++to 0.5
Heightened Def Con from 0.5 ++++++++++++++++++++to 0.5
Heightened Def Con from 0.5 +++++++++++++++++++++to 0.5
Heightened Def Con from 0.5 +++++++++++++++++++++to 0.5
Heightened Def Con from 0.5 ++++++++++++++++++++to 0.5
Heightened Def Con from 0.5 +++++++++++++++++++++to 0.5
Heightened Def Con from 0.5 ++++++++++++++++++++to 0.5
Heightened Def Con from 0.5 +++++++++++++++++++++to 0.5
Heightened Def Con from 0.5 +++++++++++++++++++++to 0.5
Heightened Def Con from 0.5 ++++++++++++++++++++to 0.5
Heightened Def Con from 0.5 +++++++++++++++++++++to 0.5
Heightened Def Con from 0.5 +++++++++++++++++++++to 0.5
Heightened Def Con from 0.5 ++++++++++++++++++++to 0.5
Heightened Def Con from 0.5 +++++++++++++++++++++to 0.5
Heightened Def Con from 0.5 ++++++++++++++++++++to 0.5
Heightened Def Con from 0.5 +++++++++++++++++++++to 0.5
Heightened Def Con from 0.5 +++++++++++++++++++++to 0.5
Heightened Def Con from 0.5 ++++++++++++++++++++to 0.5
Heightened Def Con from 0.5 +++++++++++++++++++++to 0.5
Heightened Def Con from 0.5 +++++++++++++++++++++to 0.5
Heightened Def Con from 0.5 ++++++++++++++++++++to 0.5
Heightened Def Con from 0.5 +++++++++++++++++++++to 0.5
Heightened Def Con from 0.5 +++++++++++++++++++++to 0.5
Heightened Def Con from 0.5 ++++++++++++++++++++to 0.5
Heightened Def Con from 0.5 +++++++++++++++++++++to 0.5
Heightened Def Con from 0.5 +++++++++++++++++++++to 0.5
Heightened Def Con from 0.5 ++++++++++++++++++++to 0.5
Heightened Def Con from 0.5 +++++++++++++++++++++to 0.5
Heightened Def Con from 0.5 +++++++++++++++++++++to 0.5
Heightened Def Con from 0.5 ++++++++++++++++++++to 0.5
Heightened Def Con from 0.5 +++++++++++++++++++++to 0.5
Heightened Def Con from 0.5 +++++++++++++++++++++to 0.5
Heightened Def Con from 0.5 ++++++++++++++++++++to 0.5
Heightened Def Con from 0.5 +++++++++++++++++++++to 0.5
Heightened Def Con from 0.5 +++++++++++++++++++++to 0.5
Heightened Def Con from 0.5 ++++++++++++++++++++to 0.5
Heightened Def Con from 0.5 +++++++++++++++++++++to 0.5
Heightened Def Con from 0.5 +++++++++++++++++++++to 0.5
Heightened Def Con from 0.5 ++++++++++++++++++++to 0.5
Heightened Def Con from 0.5 +++++++++++++++++++++to 0.5
Heightened Def Con from 0.5 +++++++++++++++++++++to 0.5
Heightened Def Con from 0.5 ++++++++++++++++++++to 0.5
Heightened Def Con from 0.5 +++++++++++++++++++++to 0.5
Heightened Def Con from 0.5 +++++++++++++++++++++to 0.5
Heightened Def Con from 0.5 ++++++++++++++++++++to 0.5
Heightened Def Con from 0.5 +++++++++++++++++++++to 0.5
Heightened Def Con from 0.5 +++++++++++++++++++++to 0.5
Heightened Def Con from 0.5 +++++++++++++++++++++to 0.5
Heightened Def Con from 0.5 ++++++++++++++++++++to 0.5
Heightened Def Con from 0.5 +++++++++++++++++++++to 0.5
Heightened Def Con from 0.5 +++++++++++++++++++++to 0.5
Heightened Def Con from 0.5 ++++++++++++++++++++to 0.5
Heightened Def Con from 0.5 +++++++++++++++++++++to 0.5
Heightened Def Con from 0.5 +++++++++++++++++++++to 0.5
Heightened Def Con from 0.5 +++++++++++++++++++++to 0.5
Heightened Def Con from 0.5 ++++++++++++++++++++to 0.5
Heightened Def Con from 0.5 +++++++++++++++++++++to 0.5
Heightened Def Con from 0.5 +++++++++++++++++++++to 0.5
Heightened Def Con from 0.5 +++++++++++++++++++++to 0.5
Heightened Def Con from 0.5 ++++++++++++++++++++to 0.5
Heightened Def Con from 0.5 +++++++++++++++++++++to 0.5
Heightened Def Con from 0.5 +++++++++++++++++++++to 0.5
Heightened Def Con from 0.5 +++++++++++++++++++++to 0.5
Heightened Def Con from 0.5 ++++++++++++++++++++to 0.5
Heightened Def Con from 0.5 +++++++++++++++++++++to 0.5
Heightened Def Con from 0.5 +++++++++++++++++++++to 0.5
Heightened Def Con from 0.5 +++++++++++++++++++++to 0.5
Heightened Def Con from 0.5 +++++++++++++++++++++to 0.5
Heightened Def Con from 0.5 ++++++++++++++++++++to 0.5
Heightened Def Con from 0.5 +++++++++++++++++++++to 0.5
Heightened Def Con from 0.5 +++++++++++++++++++++to 0.5
Heightened Def Con from 0.5 +++++++++++++++++++++to 0.5
Heightened Def Con from 0.5 +++++++++++++++++++++to 0.5
Heightened Def Con from 0.5 ++++++++++++++++++++to 0.5
Heightened Def Con from 0.5 +++++++++++++++++++++to 0.5
Heightened Def Con from 0.5 +++++++++++++++++++++to 0.5
Heightened Def Con from 0.5 +++++++++++++++++++++to 0.5
Heightened Def Con from 0.5 +++++++++++++++++++++to 0.5
Heightened Def Con from 0.5 +++++++++++++++++++++to 0.5
Heightened Def Con from 0.5 ++++++++++++++++++++to 0.5
Heightened Def Con from 0.5 +++++++++++++++++++++to 0.5
Heightened Def Con from 0.5 +++++++++++++++++++++to 0.5
Heightened Def Con from 0.5 +++++++++++++++++++++to 0.5
Heightened Def Con from 0.5 +++++++++++++++++++++to 0.5
Heightened Def Con from 0.5 +++++++++++++++++++++to 0.5
Heightened Def Con from 0.5 +++++++++++++++++++++to 0.5
Heightened Def Con from 0.5 ++++++++++++++++++++to 0.5
Heightened Def Con from 0.5 +++++++++++++++++++++to 0.5
Heightened Def Con from 0.5 +++++++++++++++++++++to 0.5
Heightened Def Con from 0.5 +++++++++++++++++++++to 0.5
Heightened Def Con from 0.5 +++++++++++++++++++++to 0.5
Heightened Def Con from 0.5 +++++++++++++++++++++to 0.5
Heightened Def Con from 0.5 +++++++++++++++++++++to 0.5
Heightened Def Con from 0.5 +++++++++++++++++++++to 0.5
Heightened Def Con from 0.5 +++++++++++++++++++++to 0.5
Heightened Def Con from 0.5 +++++++++++++++++++++to 0.5
Heightened Def Con from 0.5 +++++++++++++++++++++to 0.5
Heightened Def Con from 0.5 ++++++++++++++++++++to 0.5
Heightened Def Con from 0.5 +++++++++++++++++++++to 0.5
Heightened Def Con from 0.5 +++++++++++++++++++++to 0.5
Heightened Def Con from 0.5 +++++++++++++++++++++to 0.5
Heightened Def Con from 0.5 +++++++++++++++++++++to 0.5
Heightened Def Con from 0.5 +++++++++++++++++++++to 0.5
Heightened Def Con from 0.5 +++++++++++++++++++++to 0.5
Heightened Def Con from 0.5 +++++++++++++++++++++to 0.5
Heightened Def Con from 0.5 +++++++++++++++++++++to 0.5
Heightened Def Con from 0.5 +++++++++++++++++++++to 0.5
Heightened Def Con from 0.5 +++++++++++++++++++++to 0.5
Heightened Def Con from 0.5 ++++++++++++++++++++to 0.5
Heightened Def Con from 0.5 ++++++++++++++++++++++++to 0.5
Heightened Def Con from 0.5 +++++++++++++++++++++to 0.5
Heightened Def Con from 0.5 ++++++++++++++++++++to 0.5
Heightened Def Con from 0.5 +++++++++++++++++++++to 0.5
Heightened Def Con from 0.5 +++++++++++++++++++++to 0.5
Heightened Def Con from 0.5 ++++++++++++++++++++to 0.5
Heightened Def Con from 0.5 +++++++++++++++++++++to 0.5
Heightened Def Con from 0.5 +++++++++++++++++++++to 0.5
Heightened Def Con from 0.5 +++++++++++++++++++++to 0.5
Heightened Def Con from 0.5 ++++++++++++++++++++to 0.5
Heightened Def Con from 0.5 +++++++++++++++++++++to 0.5
Heightened Def Con from 0.5 +++++++++++++++++++++to 0.5
Heightened Def Con from 0.5 +++++++++++++++++++++to 0.5
Heightened Def Con from 0.5 ++++++++++++++++++++to 0.5
Heightened Def Con from 0.5 +++++++++++++++++++++to 0.5
Heightened Def Con from 0.5 +++++++++++++++++++++to 0.5
Heightened Def Con from 0.5 +++++++++++++++++++++to 0.5
Heightened Def Con from 0.5 ++++++++++++++++++++to 0.5
Heightened Def Con from 0.5 +++++++++++++++++++++to 0.5
Heightened Def Con from 0.5 +++++++++++++++++++++to 0.5
Heightened Def Con from 0.5 +++++++++++++++++++++to 0.5
Heightened Def Con from 0.5 ++++++++++++++++++++to 0.5
Heightened Def Con from 0.5 +++++++++++++++++++++to 0.5
Heightened Def Con from 0.5 +++++++++++++++++++++to 0.5
Heightened Def Con from 0.5 +++++++++++++++++++++to 0.5
Heightened Def Con from 0.5 +++++++++++++++++++++to 0.5
Heightened Def Con from 0.5 +++++++++++++++++++++to 0.5
Heightened Def Con from 0.5 ++++++++++++++++++++to 0.5
Heightened Def Con from 0.5 +++++++++++++++++++++to 0.5
Heightened Def Con from 0.5 +++++++++++++++++++++to 0.5
Heightened Def Con from 0.5 +++++++++++++++++++++to 0.5
Heightened Def Con from 0.5 +++++++++++++++++++++to 0.5
Heightened Def Con from 0.5 +++++++++++++++++++++to 0.5
Heightened Def Con from 0.5 +++++++++++++++++++++to 0.5
Heightened Def Con from 0.5 +++++++++++++++++++++to 0.5
Heightened Def Con from 0.5 +++++++++++++++++++++to 0.5
Heightened Def Con from 0.5 ++++++++++++++++++++to 0.5
Heightened Def Con from 0.5 +++++++++++++++++++++to 0.5
Heightened Def Con from 0.5 +++++++++++++++++++++to 0.5
Heightened Def Con from 0.5 +++++++++++++++++++++to 0.5
Heightened Def Con from 0.5 +++++++++++++++++++++to 0.5
Heightened Def Con from 0.5 +++++++++++++++++++++to 0.5
Heightened Def Con from 0.5 +++++++++++++++++++++to 0.5
Heightened Def Con from 0.5 +++++++++++++++++++++to 0.5
Heightened Def Con from 0.5 +++++++++++++++++++++to 0.5
Heightened Def Con from 0.5 ++++++++++++++to 0.5
Heightened Def Con from 0.5 +++++++++++++++++++++to 0.5
Heightened Def Con from 0.5 ++++++++++++++++to 0.5
Heightened Def Con from 0.5 +++++++++++++++++++++to 0.5
Heightened Def Con from 0.5 +++++++++++++++to 0.5
Heightened Def Con from 0.5 +++++++++++++++++++++to 0.5
Heightened Def Con from 0.5 ++++++++++++++++to 0.5
Heightened Def Con from 0.5 +++++++++++++++++++++to 0.5
Heightened Def Con from 0.5 ++++++++++++++++to 0.5
Heightened Def Con from 0.5 +++++++++++++++++++++to 0.5
Heightened Def Con from 0.5 ++++++++++++++++to 0.5
Heightened Def Con from 0.5 +++++++++++++++++++++to 0.5
Heightened Def Con from 0.5 +++++++++++++++++to 0.5
Heightened Def Con from 0.5 +++++++++++++++++++++to 0.5
Heightened Def Con from 0.5 ++++++++++++++++to 0.5
Heightened Def Con from 0.5 +++++++++++++++++++++to 0.5
Heightened Def Con from 0.5 +++++++++++++++++to 0.5
Heightened Def Con from 0.5 +++++++++++++++++++++to 0.5
Heightened Def Con from 0.5 ++++++++++++++++to 0.5
Heightened Def Con from 0.5 +++++++++++++++++++++to 0.5
Heightened Def Con from 0.5 +++++++++++++++++to 0.5
Heightened Def Con from 0.5 +++++++++++++++++++++to 0.5
Heightened Def Con from 0.5 +++++++++++++++++to 0.5
Heightened Def Con from 0.5 +++++++++++++++++++++to 0.5
Heightened Def Con from 0.5 +++++++++++++++++to 0.5
Heightened Def Con from 0.5 +++++++++++++++++++++to 0.5
Heightened Def Con from 0.5 +++++++++++++++++to 0.5
Heightened Def Con from 0.5 +++++++++++++++++++++to 0.5
Heightened Def Con from 0.5 ++++++++++++++++++to 0.5
Heightened Def Con from 0.5 +++++++++++++++++++++to 0.5
Heightened Def Con from 0.5 ++++++++++++++++to 0.5
Heightened Def Con from 0.5 +++++++++++++++++++++to 0.5
Heightened Def Con from 0.5 ++++++++++++++++++to 0.5
Heightened Def Con from 0.5 +++++++++++++++++++++to 0.5
Heightened Def Con from 0.5 ++++++++++++++++to 0.5
Heightened Def Con from 0.5 +++++++++++++++++++++to 0.5
Heightened Def Con from 0.5 ++++++++++++++++++to 0.5
Heightened Def Con from 0.5 +++++++++++++++++++++to 0.5
Heightened Def Con from 0.5 +++++++++++++++++to 0.5
Heightened Def Con from 0.5 +++++++++++++++++++++to 0.5
Heightened Def Con from 0.5 ++++++++++++++++++to 0.5
Heightened Def Con from 0.5 +++++++++++++++++++++to 0.5
Heightened Def Con from 0.5 ++++++++++++++++++to 0.5
Heightened Def Con from 0.5 +++++++++++++++++++++to 0.5
Heightened Def Con from 0.5 +++++++++++++++++to 0.5
Heightened Def Con from 0.5 +++++++++++++++++++++to 0.5
Heightened Def Con from 0.5 ++++++++++++++++++to 0.5
Heightened Def Con from 0.5 +++++++++++++++++++++to 0.5
Heightened Def Con from 0.5 ++++++++++++++++++to 0.5
Heightened Def Con from 0.5 +++++++++++++++++++++to 0.5
Heightened Def Con from 0.5 ++++++++++++++++++to 0.5
Heightened Def Con from 0.5 +++++++++++++++++++++to 0.5
Heightened Def Con from 0.5 ++++++++++++++++++to 0.5
Heightened Def Con from 0.5 +++++++++++++++++++++to 0.5
Heightened Def Con from 0.5 ++++++++++++++++++to 0.5
Heightened Def Con from 0.5 +++++++++++++++++++++to 0.5
Heightened Def Con from 0.5 ++++++++++++++++++to 0.5
Heightened Def Con from 0.5 +++++++++++++++++++++to 0.5
Heightened Def Con from 0.5 ++++++++++++++++++to 0.5
Heightened Def Con from 0.5 +++++++++++++++++++++to 0.5
Heightened Def Con from 0.5 ++++++++++++++++++to 0.5
Heightened Def Con from 0.5 +++++++++++++++++++++to 0.5
Heightened Def Con from 0.5 ++++++++++++++++++to 0.5
Heightened Def Con from 0.5 +++++++++++++++++++++to 0.5
Heightened Def Con from 0.5 +++++++++++++++++++to 0.5
Heightened Def Con from 0.5 +++++++++++++++++++++to 0.5
Heightened Def Con from 0.5 +++++++++++++++++to 0.5
Heightened Def Con from 0.5 +++++++++++++++++++++to 0.5
Heightened Def Con from 0.5 +++++++++++++++++++to 0.5
Heightened Def Con from 0.5 +++++++++++++++++++++to 0.5
Heightened Def Con from 0.5 +++++++++++++++++to 0.5
Heightened Def Con from 0.5 +++++++++++++++++++++to 0.5
Heightened Def Con from 0.5 +++++++++++++++++++to 0.5
Heightened Def Con from 0.5 +++++++++++++++++++++to 0.5
Heightened Def Con from 0.5 +++++++++++++++++to 0.5
Heightened Def Con from 0.5 +++++++++++++++++++++to 0.5
Heightened Def Con from 0.5 +++++++++++++++++++to 0.5
Heightened Def Con from 0.5 +++++++++++++++++++++to 0.5
Heightened Def Con from 0.5 ++++++++++++++++++to 0.5
Heightened Def Con from 0.5 +++++++++++++++++++++to 0.5
Heightened Def Con from 0.5 +++++++++++++++++++to 0.5
Heightened Def Con from 0.5 +++++++++++++++++++++to 0.5
Heightened Def Con from 0.5 ++++++++++++++++++to 0.5
Heightened Def Con from 0.5 +++++++++++++++++++++to 0.5
Heightened Def Con from 0.5 +++++++++++++++++++to 0.5
Heightened Def Con from 0.5 +++++++++++++++++++++to 0.5
Heightened Def Con from 0.5 ++++++++++++++++++to 0.5
Heightened Def Con from 0.5 +++++++++++++++++++++to 0.5
Heightened Def Con from 0.5 +++++++++++++++++++to 0.5
Heightened Def Con from 0.5 +++++++++++++++++++++to 0.5
Heightened Def Con from 0.5 ++++++++++++++++++to 0.5
Heightened Def Con from 0.5 +++++++++++++++++++++to 0.5
Heightened Def Con from 0.5 +++++++++++++++++++to 0.5
Heightened Def Con from 0.5 +++++++++++++++++++++to 0.5
Heightened Def Con from 0.5 ++++++++++++++++++to 0.5
Heightened Def Con from 0.5 +++++++++++++++++++++to 0.5
Heightened Def Con from 0.5 +++++++++++++++++++to 0.5
Heightened Def Con from 0.5 +++++++++++++++++++++to 0.5
Heightened Def Con from 0.5 +++++++++++++++++++to 0.5
Heightened Def Con from 0.5 +++++++++++++++++++++to 0.5
Heightened Def Con from 0.5 +++++++++++++++++++to 0.5
Heightened Def Con from 0.5 +++++++++++++++++++++to 0.5
Heightened Def Con from 0.5 ++++++++++++++++++to 0.5
Heightened Def Con from 0.5 +++++++++++++++++++++to 0.5
Heightened Def Con from 0.5 +++++++++++++++++++to 0.5
Heightened Def Con from 0.5 +++++++++++++++++++++to 0.5
Heightened Def Con from 0.5 +++++++++++++++++++to 0.5
Heightened Def Con from 0.5 +++++++++++++++++++++to 0.5
Heightened Def Con from 0.5 +++++++++++++++++++to 0.5
Heightened Def Con from 0.5 +++++++++++++++++++++to 0.5
Heightened Def Con from 0.5 +++++++++++++++++++to 0.5
Heightened Def Con from 0.5 +++++++++++++++++++++to 0.5
Heightened Def Con from 0.5 +++++++++++++++++++to 0.5
Heightened Def Con from 0.5 +++++++++++++++++++++to 0.5
Heightened Def Con from 0.5 +++++++++++++++++++++to 0.5
Heightened Def Con from 0.5 +++++++++++++++++++++to 0.5
Heightened Def Con from 0.5 +++++++++++++++++++++to 0.5
Heightened Def Con from 0.5 ++++++++++++++to 0.5
Heightened Def Con from 0.5 +++++++++++++++++++++to 0.5
Heightened Def Con from 0.5 ++++++++++++++++to 0.5
Heightened Def Con from 0.5 +++++++++++++++++++++to 0.5
Heightened Def Con from 0.5 +++++++++++++++++++++to 0.5
Heightened Def Con from 0.5 ++++++++++++++++++++to 0.5
Heightened Def Con from 0.5 ++++++++++++++++++++++++to 0.5
Heightened Def Con from 0.5 +++++++++++++++++++to 0.5
Heightened Def Con from 0.5 +++++++++++++++++++++to 0.5
Heightened Def Con from 0.5 ++++++++++++++++++++to 0.5
Heightened Def Con from 0.5 +++++++++++++++++++++to 0.5
Heightened Def Con from 0.5 ++++++++++++++++++++to 0.5
Heightened Def Con from 0.5 +++++++++++++++++++++to 0.5
Heightened Def Con from 0.5 ++++++++++++++++++++to 0.5
Heightened Def Con from 0.5 +++++++++++++++++++++to 0.5
Heightened Def Con from 0.5 +++++++++++++++++++to 0.5
Heightened Def Con from 0.5 +++++++++++++++++++++to 0.5
Heightened Def Con from 0.5 ++++++++++++++++++++to 0.5
Heightened Def Con from 0.5 +++++++++++++++++++++to 0.5
Heightened Def Con from 0.5 ++++++++++++++++++++to 0.5
Heightened Def Con from 0.5 +++++++++++++++++++++to 0.5
Heightened Def Con from 0.5 ++++++++++++++++++++to 0.5
Heightened Def Con from 0.5 +++++++++++++++++++++to 0.5
Heightened Def Con from 0.5 +++++++++++++++++++to 0.5
Heightened Def Con from 0.5 +++++++++++++++++++++to 0.5
Heightened Def Con from 0.5 ++++++++++++++++++++to 0.5
Heightened Def Con from 0.5 +++++++++++++++++++++to 0.5
Heightened Def Con from 0.5 ++++++++++++++++++++to 0.5
Heightened Def Con from 0.5 +++++++++++++++++++++to 0.5
Heightened Def Con from 0.5 ++++++++++++++++++++to 0.5
Heightened Def Con from 0.5 +++++++++++++++++++++to 0.5
Heightened Def Con from 0.5 ++++++++++++++++++++to 0.5
Heightened Def Con from 0.5 +++++++++++++++++++++to 0.5
Heightened Def Con from 0.5 ++++++++++++++++++++to 0.5
Heightened Def Con from 0.5 +++++++++++++++++++++to 0.5
Heightened Def Con from 0.5 +++++++++++++++++++to 0.5
Heightened Def Con from 0.5 +++++++++++++++++++++to 0.5
Heightened Def Con from 0.5 ++++++++++++++++++++to 0.5
Heightened Def Con from 0.5 +++++++++++++++++++++to 0.5
Heightened Def Con from 0.5 ++++++++++++++++++++to 0.5
Heightened Def Con from 0.5 +++++++++++++++++++++to 0.5
Heightened Def Con from 0.5 ++++++++++++++++++++to 0.5
Heightened Def Con from 0.5 +++++++++++++++++++++to 0.5
Heightened Def Con from 0.5 ++++++++++++++++++++to 0.5
Heightened Def Con from 0.5 +++++++++++++++++++++to 0.5
Heightened Def Con from 0.5 ++++++++++++++++++++to 0.5
Heightened Def Con from 0.5 +++++++++++++++++++++to 0.5
Heightened Def Con from 0.5 ++++++++++++++++++++to 0.5
Heightened Def Con from 0.5 +++++++++++++++++++++to 0.5
Heightened Def Con from 0.5 ++++++++++++++++++++to 0.5
Heightened Def Con from 0.5 +++++++++++++++++++++to 0.5
Heightened Def Con from 0.5 ++++++++++++++++++++to 0.5
Heightened Def Con from 0.5 +++++++++++++++++++++to 0.5
Heightened Def Con from 0.5 ++++++++++++++++++++to 0.5
Heightened Def Con from 0.5 +++++++++++++++++++++to 0.5
Heightened Def Con from 0.5 +++++++++++++++++++to 0.5
Heightened Def Con from 0.5 +++++++++++++++++++++to 0.5
Heightened Def Con from 0.5 ++++++++++++++++++++to 0.5
Heightened Def Con from 0.5 +++++++++++++++++++++to 0.5
Heightened Def Con from 0.5 ++++++++++++++++++++to 0.5
Heightened Def Con from 0.5 +++++++++++++++++++++to 0.5
Heightened Def Con from 0.5 ++++++++++++++++++++to 0.5
Heightened Def Con from 0.5 +++++++++++++++++++++to 0.5
Heightened Def Con from 0.5 ++++++++++++++++++++to 0.5
Heightened Def Con from 0.5 +++++++++++++++++++++to 0.5
Heightened Def Con from 0.5 ++++++++++++++++++++to 0.5
Heightened Def Con from 0.5 +++++++++++++++++++++to 0.5
Heightened Def Con from 0.5 ++++++++++++++++++++to 0.5
Heightened Def Con from 0.5 +++++++++++++++++++++to 0.5
Heightened Def Con from 0.5 ++++++++++++++++++++to 0.5
Heightened Def Con from 0.5 +++++++++++++++++++++to 0.5
Heightened Def Con from 0.5 ++++++++++++++++++++to 0.5
Heightened Def Con from 0.5 +++++++++++++++++++++to 0.5
Heightened Def Con from 0.5 ++++++++++++++++++++to 0.5
Heightened Def Con from 0.5 +++++++++++++++++++++to 0.5
Heightened Def Con from 0.5 +++++++++++++++++++++to 0.5
Heightened Def Con from 0.5 +++++++++++++++++++to 0.5
Heightened Def Con from 0.5 +++++++++++++++++++++to 0.5
Heightened Def Con from 0.5 ++++++++++++++++++++to 0.5
Heightened Def Con from 0.5 +++++++++++++++++++++to 0.5
Heightened Def Con from 0.5 ++++++++++++++++++++to 0.5
Heightened Def Con from 0.5 +++++++++++++++++++++to 0.5
Heightened Def Con from 0.5 ++++++++++++++++++++to 0.5
Heightened Def Con from 0.5 +++++++++++++++++++++to 0.5
Heightened Def Con from 0.5 ++++++++++++++++++++to 0.5
Heightened Def Con from 0.5 +++++++++++++++++++++to 0.5
Heightened Def Con from 0.5 ++++++++++++++++++++to 0.5
Heightened Def Con from 0.5 +++++++++++++++++++++to 0.5
Heightened Def Con from 0.5 +++++++++++++++++++++to 0.5
Heightened Def Con from 0.5 +++++++++++++++++++to 0.5
Heightened Def Con from 0.5 +++++++++++++++++++++to 0.5
Heightened Def Con from 0.5 ++++++++++++++++++++to 0.5
Heightened Def Con from 0.5 +++++++++++++++++++++to 0.5
Heightened Def Con from 0.5 ++++++++++++++++++++to 0.5
Heightened Def Con from 0.5 +++++++++++++++++++++to 0.5
Heightened Def Con from 0.5 +++++++++++++++++++++to 0.5
Heightened Def Con from 0.5 +++++++++++++++++++to 0.5
Heightened Def Con from 0.5 +++++++++++++++++++++to 0.5
Heightened Def Con from 0.5 ++++++++++++++++++++to 0.5
Heightened Def Con from 0.5 +++++++++++++++++++++to 0.5
Heightened Def Con from 0.5 ++++++++++++++++++++to 0.5
Heightened Def Con from 0.5 +++++++++++++++++++++to 0.5
Heightened Def Con from 0.5 +++++++++++++++++++++to 0.5
Heightened Def Con from 0.5 +++++++++++++++++++to 0.5
Heightened Def Con from 0.5 +++++++++++++++++++++to 0.5
Heightened Def Con from 0.5 ++++++++++++++++++++to 0.5
Heightened Def Con from 0.5 +++++++++++++++++++++to 0.5
Heightened Def Con from 0.5 +++++++++++++++++++++to 0.5
Heightened Def Con from 0.5 +++++++++++++++++++to 0.5
Heightened Def Con from 0.5 +++++++++++++++++++++to 0.5
Heightened Def Con from 0.5 +++++++++++++++++++++to 0.5
Heightened Def Con from 0.5 +++++++++++++++++++to 0.5
Heightened Def Con from 0.5 +++++++++++++++++++++to 0.5
Heightened Def Con from 0.5 +++++++++++++++++++++to 0.5
Heightened Def Con from 0.5 +++++++++++++++++++to 0.5
Heightened Def Con from 0.5 +++++++++++++++++++++to 0.5
Heightened Def Con from 0.5 +++++++++++++++++++++to 0.5
Heightened Def Con from 0.5 +++++++++++++++++++to 0.5
Heightened Def Con from 0.5 +++++++++++++++++++++to 0.5
Heightened Def Con from 0.5 +++++++++++++++++++++to 0.5
Heightened Def Con from 0.5 +++++++++++++++++++to 0.5
Heightened Def Con from 0.5 +++++++++++++++++++++to 0.5
Heightened Def Con from 0.5 +++++++++++++++++++++to 0.5
Heightened Def Con from 0.5 +++++++++++++++++++to 0.5
Heightened Def Con from 0.5 +++++++++++++++++++++to 0.5
Heightened Def Con from 0.5 +++++++++++++++++++++to 0.5
Heightened Def Con from 0.5 +++++++++++++++++++to 0.5
Heightened Def Con from 0.5 +++++++++++++++++++++to 0.5
Heightened Def Con from 0.5 +++++++++++++++++++++to 0.5
Heightened Def Con from 0.5 ++++++++++++++++++++to 0.5
Heightened Def Con from 0.5 +++++++++++++++++++++to 0.5
Heightened Def Con from 0.5 ++++++++++++++++++++to 0.5
Heightened Def Con from 0.5 +++++++++++++++++++++to 0.5
Heightened Def Con from 0.5 ++++++++++++++++++++to 0.5
Heightened Def Con from 0.5 +++++++++++++++++++++to 0.5
Heightened Def Con from 0.5 +++++++++++++++++++++to 0.5
Heightened Def Con from 0.5 +++++++++++++++++++to 0.5
Heightened Def Con from 0.5 +++++++++++++++++++++to 0.5
Heightened Def Con from 0.5 +++++++++++++++++++++to 0.5
Heightened Def Con from 0.5 ++++++++++++++++++++to 0.5
Heightened Def Con from 0.5 +++++++++++++++++++++to 0.5
Heightened Def Con from 0.5 ++++++++++++++++++++to 0.5
Heightened Def Con from 0.5 +++++++++++++++++++++to 0.5
Heightened Def Con from 0.5 +++++++++++++++++++++to 0.5
Heightened Def Con from 0.5 +++++++++++++++++++to 0.5
Heightened Def Con from 0.5 +++++++++++++++++++++to 0.5
Heightened Def Con from 0.5 +++++++++++++++++++++to 0.5
Heightened Def Con from 0.5 ++++++++++++++++++++to 0.5
Heightened Def Con from 0.5 +++++++++++++++++++++to 0.5
Heightened Def Con from 0.5 ++++++++++++++++++++to 0.5
Heightened Def Con from 0.5 +++++++++++++++++++++to 0.5
Heightened Def Con from 0.5 +++++++++++++++++++++to 0.5
Heightened Def Con from 0.5 ++++++++++++++++++++to 0.5
Heightened Def Con from 0.5 +++++++++++++++++++++to 0.5
Heightened Def Con from 0.5 ++++++++++++++++++++to 0.5
Heightened Def Con from 0.5 +++++++++++++++++++++to 0.5
Heightened Def Con from 0.5 +++++++++++++++++++++to 0.5
Heightened Def Con from 0.5 ++++++++++++++++++++to 0.5
Heightened Def Con from 0.5 +++++++++++++++++++++to 0.5
Heightened Def Con from 0.5 ++++++++++++++++++++to 0.5
Heightened Def Con from 0.5 +++++++++++++++++++++to 0.5
Heightened Def Con from 0.5 +++++++++++++++++++++to 0.5
Heightened Def Con from 0.5 ++++++++++++++++++++to 0.5
Heightened Def Con from 0.5 +++++++++++++++++++++to 0.5
Heightened Def Con from 0.5 ++++++++++++++++++++to 0.5
Heightened Def Con from 0.5 +++++++++++++++++++++to 0.5
Heightened Def Con from 0.5 +++++++++++++++++++++to 0.5
Heightened Def Con from 0.5 ++++++++++++++++++++to 0.5
Heightened Def Con from 0.5 +++++++++++++++++++++to 0.5
Heightened Def Con from 0.5 ++++++++++++++++++++to 0.5
Heightened Def Con from 0.5 +++++++++++++++++++++to 0.5
Heightened Def Con from 0.5 +++++++++++++++++++++to 0.5
Heightened Def Con from 0.5 ++++++++++++++++++++to 0.5
Heightened Def Con from 0.5 +++++++++++++++++++++to 0.5
Heightened Def Con from 0.5 +++++++++++++++++++++to 0.5
Heightened Def Con from 0.5 ++++++++++++++++++++to 0.5
Heightened Def Con from 0.5 +++++++++++++++++++++to 0.5
Heightened Def Con from 0.5 ++++++++++++++++++++to 0.5
Heightened Def Con from 0.5 +++++++++++++++++++++to 0.5
Heightened Def Con from 0.5 +++++++++++++++++++++to 0.5
Heightened Def Con from 0.5 ++++++++++++++++++++to 0.5
Heightened Def Con from 0.5 +++++++++++++++++++++to 0.5
Heightened Def Con from 0.5 +++++++++++++++++++++to 0.5
Heightened Def Con from 0.5 ++++++++++++++++++++to 0.5
Heightened Def Con from 0.5 +++++++++++++++++++++to 0.5
Heightened Def Con from 0.5 ++++++++++++++++++++to 0.5
Heightened Def Con from 0.5 +++++++++++++++++++++to 0.5
Heightened Def Con from 0.5 +++++++++++++++++++++to 0.5
Heightened Def Con from 0.5 ++++++++++++++++++++to 0.5
Heightened Def Con from 0.5 +++++++++++++++++++++to 0.5
Heightened Def Con from 0.5 +++++++++++++++++++++to 0.5
Heightened Def Con from 0.5 ++++++++++++++++++++to 0.5
Heightened Def Con from 0.5 +++++++++++++++++++++to 0.5
Heightened Def Con from 0.5 +++++++++++++++++++++to 0.5
Heightened Def Con from 0.5 ++++++++++++++++++++to 0.5
Heightened Def Con from 0.5 +++++++++++++++++++++to 0.5
Heightened Def Con from 0.5 +++++++++++++++++++++to 0.5
Heightened Def Con from 0.5 ++++++++++++++++++++to 0.5
Heightened Def Con from 0.5 +++++++++++++++++++++to 0.5
Heightened Def Con from 0.5 +++++++++++++++++++++to 0.5
Heightened Def Con from 0.5 ++++++++++++++++++++to 0.5
Heightened Def Con from 0.5 +++++++++++++++++++++to 0.5
Heightened Def Con from 0.5 +++++++++++++++++++++to 0.5
Heightened Def Con from 0.5 ++++++++++++++++++++to 0.5
Heightened Def Con from 0.5 +++++++++++++++++++++to 0.5
Heightened Def Con from 0.5 +++++++++++++++++++++to 0.5
Heightened Def Con from 0.5 ++++++++++++++++++++to 0.5
Heightened Def Con from 0.5 +++++++++++++++++++++to 0.5
Heightened Def Con from 0.5 +++++++++++++++++++++to 0.5
Heightened Def Con from 0.5 ++++++++++++++++++++to 0.5
Heightened Def Con from 0.5 +++++++++++++++++++++to 0.5
Heightened Def Con from 0.5 +++++++++++++++++++++to 0.5
Heightened Def Con from 0.5 ++++++++++++++++++++to 0.5
Heightened Def Con from 0.5 +++++++++++++++++++++to 0.5
Heightened Def Con from 0.5 +++++++++++++++++++++to 0.5
Heightened Def Con from 0.5 ++++++++++++++++++++to 0.5
Heightened Def Con from 0.5 +++++++++++++++++++++to 0.5
Heightened Def Con from 0.5 +++++++++++++++++++++to 0.5
Heightened Def Con from 0.5 ++++++++++++++++++++to 0.5
Heightened Def Con from 0.5 +++++++++++++++++++++to 0.5
Heightened Def Con from 0.5 +++++++++++++++++++++to 0.5
Heightened Def Con from 0.5 ++++++++++++++++++++to 0.5
Heightened Def Con from 0.5 +++++++++++++++++++++to 0.5
Heightened Def Con from 0.5 +++++++++++++++++++++to 0.5
Heightened Def Con from 0.5 +++++++++++++++++++++to 0.5
Heightened Def Con from 0.5 ++++++++++++++++++++to 0.5
Heightened Def Con from 0.5 +++++++++++++++++++++to 0.5
Heightened Def Con from 0.5 +++++++++++++++++++++to 0.5
Heightened Def Con from 0.5 ++++++++++++++++++++to 0.5
Heightened Def Con from 0.5 +++++++++++++++++++++to 0.5
Heightened Def Con from 0.5 +++++++++++++++++++++to 0.5
Heightened Def Con from 0.5 +++++++++++++++++++++to 0.5
Heightened Def Con from 0.5 ++++++++++++++++++++to 0.5
Heightened Def Con from 0.5 +++++++++++++++++++++to 0.5
Heightened Def Con from 0.5 +++++++++++++++++++++to 0.5
Heightened Def Con from 0.5 +++++++++++++++++++++to 0.5
Heightened Def Con from 0.5 ++++++++++++++++++++to 0.5
Heightened Def Con from 0.5 +++++++++++++++++++++to 0.5
Heightened Def Con from 0.5 +++++++++++++++++++++to 0.5
Heightened Def Con from 0.5 ++++++++++++++++++++to 0.5
Heightened Def Con from 0.5 +++++++++++++++++++++to 0.5
Heightened Def Con from 0.5 +++++++++++++++++++++to 0.5
Heightened Def Con from 0.5 +++++++++++++++++++++to 0.5
Heightened Def Con from 0.5 ++++++++++++++++++++to 0.5
Heightened Def Con from 0.5 +++++++++++++++++++++to 0.5
Heightened Def Con from 0.5 +++++++++++++++++++++to 0.5
Heightened Def Con from 0.5 +++++++++++++++++++++to 0.5
Heightened Def Con from 0.5 ++++++++++++++++++++to 0.5
Heightened Def Con from 0.5 +++++++++++++++++++++to 0.5
Heightened Def Con from 0.5 +++++++++++++++++++++to 0.5
Heightened Def Con from 0.5 +++++++++++++++++++++to 0.5
Heightened Def Con from 0.5 ++++++++++++++++++++to 0.5
Heightened Def Con from 0.5 +++++++++++++++++++++to 0.5
Heightened Def Con from 0.5 +++++++++++++++++++++to 0.5
Heightened Def Con from 0.5 +++++++++++++++++++++to 0.5
Heightened Def Con from 0.5 +++++++++++++++++++++to 0.5
Heightened Def Con from 0.5 ++++++++++++++++++++to 0.5
Heightened Def Con from 0.5 +++++++++++++++++++++to 0.5
Heightened Def Con from 0.5 +++++++++++++++++++++to 0.5
Heightened Def Con from 0.5 +++++++++++++++++++++to 0.5
Heightened Def Con from 0.5 ++++++++++++++++++++to 0.5
Heightened Def Con from 0.5 +++++++++++++++++++++to 0.5
Heightened Def Con from 0.5 +++++++++++++++++++++to 0.5
Heightened Def Con from 0.5 +++++++++++++++++++++to 0.5
Heightened Def Con from 0.5 +++++++++++++++++++++to 0.5
Heightened Def Con from 0.5 ++++++++++++++++++++to 0.5
Heightened Def Con from 0.5 +++++++++++++++++++++to 0.5
Heightened Def Con from 0.5 +++++++++++++++++++++to 0.5
Heightened Def Con from 0.5 +++++++++++++++++++++to 0.5
Heightened Def Con from 0.5 +++++++++++++++++++++to 0.5
Heightened Def Con from 0.5 +++++++++++++++++++++to 0.5
Heightened Def Con from 0.5 ++++++++++++++++++++to 0.5
Heightened Def Con from 0.5 +++++++++++++++++++++to 0.5
Heightened Def Con from 0.5 +++++++++++++++++++++to 0.5
Heightened Def Con from 0.5 +++++++++++++++++++++to 0.5
Heightened Def Con from 0.5 +++++++++++++++++++++to 0.5
Heightened Def Con from 0.5 +++++++++++++++++++++to 0.5
Heightened Def Con from 0.5 ++++++++++++++++++++to 0.5
Heightened Def Con from 0.5 +++++++++++++++++++++to 0.5
Heightened Def Con from 0.5 +++++++++++++++++++++to 0.5
Heightened Def Con from 0.5 +++++++++++++++++++++to 0.5
Heightened Def Con from 0.5 +++++++++++++++++++++to 0.5
Heightened Def Con from 0.5 +++++++++++++++++++++to 0.5
Heightened Def Con from 0.5 +++++++++++++++++++++to 0.5
Heightened Def Con from 0.5 ++++++++++++++++++++to 0.5
Heightened Def Con from 0.5 +++++++++++++++++++++to 0.5
Heightened Def Con from 0.5 +++++++++++++++++++++to 0.5
Heightened Def Con from 0.5 +++++++++++++++++++++to 0.5
Heightened Def Con from 0.5 +++++++++++++++++++++to 0.5
Heightened Def Con from 0.5 +++++++++++++++++++++to 0.5
Heightened Def Con from 0.5 +++++++++++++++++++++to 0.5
Heightened Def Con from 0.5 +++++++++++++++++++++to 0.5
Heightened Def Con from 0.5 ++++++++++++++++++++to 0.5
Heightened Def Con from 0.5 +++++++++++++++++++++to 0.5
Heightened Def Con from 0.5 +++++++++++++++++++++to 0.5
Heightened Def Con from 0.5 +++++++++++++++++++++to 0.5
Heightened Def Con from 0.5 +++++++++++++++++++++to 0.5
Heightened Def Con from 0.5 +++++++++++++++++++++to 0.5
Heightened Def Con from 0.5 +++++++++++++++++++++to 0.5
Heightened Def Con from 0.5 +++++++++++++++++++++to 0.5
Heightened Def Con from 0.5 +++++++++++++++++++++to 0.5
Heightened Def Con from 0.5 +++++++++++++++++++++to 0.5
Heightened Def Con from 0.5 +++++++++++++++++++++to 0.5
Heightened Def Con from 0.5 +++++++++++++++++++++to 0.5
Heightened Def Con from 0.5 +++++++++++++++++++++to 0.5
Heightened Def Con from 0.5 +++++++++++++++++++++to 0.5
Heightened Def Con from 0.5 +++++++++++++++++++++to 0.5
Heightened Def Con from 0.5 ++++++++++++++++++++to 0.5
Heightened Def Con from 0.5 +++++++++++++++++++++to 0.5
Heightened Def Con from 0.5 +++++++++++++++++++++to 0.5
Heightened Def Con from 0.5 +++++++++++++++++++++to 0.5
Heightened Def Con from 0.5 +++++++++++++++++++++to 0.5
Heightened Def Con from 0.5 +++++++++++++++++++++to 0.5
Heightened Def Con from 0.5 +++++++++++++++++++++to 0.5
Heightened Def Con from 0.5 +++++++++++++++++++++to 0.5
Heightened Def Con from 0.5 +++++++++++++++++++++to 0.5
Heightened Def Con from 0.5 +++++++++++++++++++++to 0.5
Heightened Def Con from 0.5 +++++++++++++++++++++to 0.5
Heightened Def Con from 0.5 +++++++++++++++++++++to 0.5
Heightened Def Con from 0.5 +++++++++++++++++++++to 0.5
Heightened Def Con from 0.5 +++++++++++++++++++++to 0.5
Heightened Def Con from 0.5 +++++++++++++++to 0.5
Heightened Def Con from 0.5 +++++++++++++++++++++to 0.5
Heightened Def Con from 0.5 +++++++++++++++to 0.5
Heightened Def Con from 0.5 +++++++++++++++++++++to 0.5
Heightened Def Con from 0.5 +++++++++++++++to 0.5
Heightened Def Con from 0.5 +++++++++++++++++++++to 0.5
Heightened Def Con from 0.5 ++++++++++++++++to 0.5
Heightened Def Con from 0.5 +++++++++++++++++++++to 0.5
Heightened Def Con from 0.5 +++++++++++++++to 0.5
Heightened Def Con from 0.5 +++++++++++++++++++++to 0.5
Heightened Def Con from 0.5 ++++++++++++++++to 0.5
Heightened Def Con from 0.5 +++++++++++++++++++++to 0.5
Heightened Def Con from 0.5 ++++++++++++++++to 0.5
Heightened Def Con from 0.5 +++++++++++++++++++++to 0.5
Heightened Def Con from 0.5 ++++++++++++++++to 0.5
Heightened Def Con from 0.5 +++++++++++++++++++++to 0.5
Heightened Def Con from 0.5 ++++++++++++++++to 0.5
Heightened Def Con from 0.5 +++++++++++++++++++++to 0.5
Heightened Def Con from 0.5 ++++++++++++++++to 0.5
Heightened Def Con from 0.5 +++++++++++++++++++++to 0.5
Heightened Def Con from 0.5 +++++++++++++++++to 0.5
Heightened Def Con from 0.5 +++++++++++++++++++++to 0.5
Heightened Def Con from 0.5 +++++++++++++++to 0.5
Heightened Def Con from 0.5 +++++++++++++++++++++to 0.5
Heightened Def Con from 0.5 +++++++++++++++++to 0.5
Heightened Def Con from 0.5 +++++++++++++++++++++to 0.5
Heightened Def Con from 0.5 +++++++++++++++to 0.5
Heightened Def Con from 0.5 +++++++++++++++++++++to 0.5
Heightened Def Con from 0.5 +++++++++++++++++to 0.5
Heightened Def Con from 0.5 +++++++++++++++++++++to 0.5
Heightened Def Con from 0.5 +++++++++++++++++to 0.5
Heightened Def Con from 0.5 +++++++++++++++++++++to 0.5
Heightened Def Con from 0.5 ++++++++++++++++to 0.5
Heightened Def Con from 0.5 +++++++++++++++++++++to 0.5
Heightened Def Con from 0.5 +++++++++++++++++to 0.5
Heightened Def Con from 0.5 +++++++++++++++++++++to 0.5
Heightened Def Con from 0.5 +++++++++++++++++to 0.5
Heightened Def Con from 0.5 +++++++++++++++++++++to 0.5
Heightened Def Con from 0.5 ++++++++++++++++to 0.5
Heightened Def Con from 0.5 +++++++++++++++++++++to 0.5
Heightened Def Con from 0.5 +++++++++++++++++to 0.5
Heightened Def Con from 0.5 +++++++++++++++++++++to 0.5
Heightened Def Con from 0.5 +++++++++++++++++to 0.5
Heightened Def Con from 0.5 +++++++++++++++++++++to 0.5
Heightened Def Con from 0.5 +++++++++++++++++to 0.5
Heightened Def Con from 0.5 +++++++++++++++++++++to 0.5
Heightened Def Con from 0.5 +++++++++++++++++to 0.5
Heightened Def Con from 0.5 +++++++++++++++++++++to 0.5
[...]
Heightened Def Con from 0.529341 ++++++++++++++++++++to 0.529341
Heightened Def Con from 0.529341 ++++++++++++++++++++to 0.529341
Heightened Def Con from 0.529341 +++++++++++++++++++to 0.529341
Heightened Def Con from 0.529341 ++++++++++++++++++++to 0.529341
Heightened Def Con from 0.529341 ++++++++++++++++++++to 0.529341
Heightened Def Con from 0.529341 ++++++++++++++++++++to 0.529341
Heightened Def Con from 0.529341 ++++++++++++++++++++to 0.529341
Heightened Def Con from 0.529341 +++++++++++++++++++to 0.529341
Heightened Def Con from 0.529341 ++++++++++++++++++++to 0.529341
Heightened Def Con from 0.529341 ++++++++++++++++++++to 0.529341
Heightened Def Con from 0.529341 ++++++++++++++++++++to 0.529341
Heightened Def Con from 0.529341 ++++++++++++++++++++to 0.529341
Heightened Def Con from 0.529341 +++++++++++++++++++to 0.529341
Heightened Def Con from 0.529341 ++++++++++++++++++++to 0.529341
Heightened Def Con from 0.529341 ++++++++++++++++++++to 0.529341
Heightened Def Con from 0.529341 ++++++++++++++++++++to 0.529341
Heightened Def Con from 0.529341 ++++++++++++++++++++to 0.529341
Heightened Def Con from 0.529341 +++++++++++++++++++to 0.529341
Heightened Def Con from 0.529341 ++++++++++++++++++++to 0.529341
Heightened Def Con from 0.529341 ++++++++++++++++++++to 0.529341
Heightened Def Con from 0.529341 ++++++++++++++++++++to 0.529341
Heightened Def Con from 0.529341 ++++++++++++++++++++to 0.529341
Heightened Def Con from 0.529341 +++++++++++++++++++to 0.529341
Heightened Def Con from 0.529341 ++++++++++++++++++++to 0.529341
Heightened Def Con from 0.529341 ++++++++++++++++++++to 0.529341
Heightened Def Con from 0.529341 ++++++++++++++++++++to 0.529341
Heightened Def Con from 0.529341 ++++++++++++++++++++to 0.529341
Heightened Def Con from 0.529341 +++++++++++++++++++to 0.529341
Heightened Def Con from 0.529341 ++++++++++++++++++++to 0.529341
Heightened Def Con from 0.529341 ++++++++++++++++++++to 0.529341
Heightened Def Con from 0.529341 ++++++++++++++++++++to 0.529341
Heightened Def Con from 0.529341 ++++++++++++++++++++to 0.529341
Heightened Def Con from 0.529341 +++++++++++++++++++to 0.529341
Heightened Def Con from 0.529341 ++++++++++++++++++++to 0.529341
Heightened Def Con from 0.529341 ++++++++++++++++++++to 0.529341
Heightened Def Con from 0.529341 ++++++++++++++++++++to 0.529341
Heightened Def Con from 0.529341 ++++++++++++++++++++to 0.529341
Heightened Def Con from 0.529341 +++++++++++++++++++to 0.529341
Heightened Def Con from 0.529341 ++++++++++++++++++++to 0.529341
Heightened Def Con from 0.529341 ++++++++++++++++++++to 0.529341
Heightened Def Con from 0.529341 ++++++++++++++++++++to 0.529341
Heightened Def Con from 0.529341 ++++++++++++++++++++to 0.529341
Heightened Def Con from 0.529341 +++++++++++++++++++to 0.529341
Heightened Def Con from 0.529341 ++++++++++++++++++++to 0.529341
Heightened Def Con from 0.529341 ++++++++++++++++++++to 0.529341
Heightened Def Con from 0.529341 ++++++++++++++++++++to 0.529341
Heightened Def Con from 0.529341 ++++++++++++++++++++to 0.529341
Heightened Def Con from 0.529341 +++++++++++++++++++to 0.529341
Heightened Def Con from 0.529341 ++++++++++++++++++++to 0.529341
Heightened Def Con from 0.529341 ++++++++++++++++++++to 0.529341
Heightened Def Con from 0.529341 ++++++++++++++++++++to 0.529341
Heightened Def Con from 0.529341 ++++++++++++++++++++to 0.529341
Heightened Def Con from 0.529341 +++++++++++++++++++to 0.529341
Heightened Def Con from 0.529341 ++++++++++++++++++++to 0.529341
Heightened Def Con from 0.529341 ++++++++++++++++++++to 0.529341
Heightened Def Con from 0.529341 ++++++++++++++++++++to 0.529341
Heightened Def Con from 0.529341 ++++++++++++++++++++to 0.529341
Heightened Def Con from 0.529341 +++++++++++++++++++to 0.529341
Heightened Def Con from 0.529341 ++++++++++++++++++++to 0.529341
Heightened Def Con from 0.529341 ++++++++++++++++++++to 0.529341
Heightened Def Con from 0.529341 ++++++++++++++++++++to 0.529341
Heightened Def Con from 0.529341 ++++++++++++++++++++to 0.529341
Heightened Def Con from 0.529341 +++++++++++++++++++to 0.529341
Heightened Def Con from 0.529341 ++++++++++++++++++++to 0.529341
Heightened Def Con from 0.529341 ++++++++++++++++++++to 0.529341
Heightened Def Con from 0.529341 ++++++++++++++++++++to 0.529341
Heightened Def Con from 0.529341 ++++++++++++++++++++to 0.529341
Heightened Def Con from 0.529341 +++++++++++++++++++to 0.529341
Heightened Def Con from 0.529341 ++++++++++++++++++++to 0.529341
Heightened Def Con from 0.529341 ++++++++++++++++++++to 0.529341
Heightened Def Con from 0.529341 ++++++++++++++++++++to 0.529341
Heightened Def Con from 0.529341 ++++++++++++++++++++to 0.529341
Heightened Def Con from 0.529341 +++++++++++++++++++to 0.529341
Heightened Def Con from 0.529341 ++++++++++++++++++++to 0.529341
Heightened Def Con from 0.529341 ++++++++++++++++++++to 0.529341
Heightened Def Con from 0.529341 ++++++++++++++++++++to 0.529341
Heightened Def Con from 0.529341 ++++++++++++++++++++to 0.529341
Heightened Def Con from 0.529341 +++++++++++++++++++to 0.529341
Heightened Def Con from 0.529341 ++++++++++++++++++++to 0.529341
Heightened Def Con from 0.529341 ++++++++++++++++++++to 0.529341
Heightened Def Con from 0.529341 ++++++++++++++++++++to 0.529341
Heightened Def Con from 0.529341 ++++++++++++++++++++to 0.529341
Heightened Def Con from 0.529341 +++++++++++++++++++to 0.529341
Heightened Def Con from 0.529341 ++++++++++++++++++++to 0.529341
Heightened Def Con from 0.529341 ++++++++++++++++++++to 0.529341
Heightened Def Con from 0.529341 ++++++++++++++++++++to 0.529341
Heightened Def Con from 0.529341 ++++++++++++++++++++to 0.529341
Heightened Def Con from 0.529341 +++++++++++++++++++to 0.529341
Heightened Def Con from 0.529341 ++++++++++++++++++++to 0.529341
Heightened Def Con from 0.529341 ++++++++++++++++++++to 0.529341
Heightened Def Con from 0.529341 ++++++++++++++++++++to 0.529341
Heightened Def Con from 0.529341 ++++++++++++++++++++to 0.529341
Heightened Def Con from 0.529341 +++++++++++++++++++to 0.529341
Heightened Def Con from 0.529341 ++++++++++++++++++++to 0.529341
Heightened Def Con from 0.529341 ++++++++++++++++++++to 0.529341
Heightened Def Con from 0.529341 ++++++++++++++++++++to 0.529341
Heightened Def Con from 0.529341 ++++++++++++++++++++to 0.529341
Heightened Def Con from 0.529341 +++++++++++++++++++to 0.529341
Heightened Def Con from 0.529341 ++++++++++++++++++++to 0.529341
Heightened Def Con from 0.529341 ++++++++++++++++++++to 0.529341
Heightened Def Con from 0.529341 ++++++++++++++++++++to 0.529341
Heightened Def Con from 0.529341 ++++++++++++++++++++to 0.529341
Heightened Def Con from 0.529341 +++++++++++++++++++to 0.529341
Heightened Def Con from 0.529341 ++++++++++++++++++++to 0.529341
Heightened Def Con from 0.529341 ++++++++++++++++++++to 0.529341
Heightened Def Con from 0.529341 ++++++++++++++++++++to 0.529341
Heightened Def Con from 0.529341 ++++++++++++++++++++to 0.529341
Heightened Def Con from 0.529341 +++++++++++++++++++to 0.529341
Heightened Def Con from 0.529341 ++++++++++++++++++++to 0.529341
Heightened Def Con from 0.529341 ++++++++++++++++++++to 0.529341
Heightened Def Con from 0.529341 ++++++++++++++++++++to 0.529341
Heightened Def Con from 0.529341 ++++++++++++++++++++to 0.529341
Heightened Def Con from 0.529341 +++++++++++++++++++to 0.529341
Heightened Def Con from 0.529341 ++++++++++++++++++++to 0.529341
Heightened Def Con from 0.529341 ++++++++++++++++++++to 0.529341
Heightened Def Con from 0.529341 ++++++++++++++++++++to 0.529341
Heightened Def Con from 0.529341 ++++++++++++++++++++to 0.529341
Heightened Def Con from 0.529341 +++++++++++++++++++to 0.529341
Heightened Def Con from 0.529341 ++++++++++++++++++++to 0.529341
Heightened Def Con from 0.529341 ++++++++++++++++++++to 0.529341
Heightened Def Con from 0.529341 ++++++++++++++++++++to 0.529341
Heightened Def Con from 0.529341 ++++++++++++++++++++to 0.529341
Heightened Def Con from 0.529341 +++++++++++++++++++to 0.529341
Heightened Def Con from 0.529341 ++++++++++++++++++++to 0.529341
Heightened Def Con from 0.529341 ++++++++++++++++++++to 0.529341
Heightened Def Con from 0.529341 ++++++++++++++++++++to 0.529341
Heightened Def Con from 0.529341 ++++++++++++++++++++to 0.529341
Heightened Def Con from 0.529341 +++++++++++++++++++to 0.529341
Heightened Def Con from 0.529341 ++++++++++++++++++++to 0.529341
Heightened Def Con from 0.529341 ++++++++++++++++++++to 0.529341
Heightened Def Con from 0.529341 ++++++++++++++++++++to 0.529341
Heightened Def Con from 0.529341 ++++++++++++++++++++to 0.529341
Heightened Def Con from 0.529341 +++++++++++++++++++to 0.529341
Heightened Def Con from 0.529341 ++++++++++++++++++++to 0.529341
Heightened Def Con from 0.529341 ++++++++++++++++++++to 0.529341
Heightened Def Con from 0.529341 ++++++++++++++++++++to 0.529341
Heightened Def Con from 0.529341 ++++++++++++++++++++to 0.529341
Heightened Def Con from 0.529341 +++++++++++++++++++to 0.529341
Heightened Def Con from 0.529341 ++++++++++++++++++++to 0.529341
Heightened Def Con from 0.529341 ++++++++++++++++++++to 0.529341
Heightened Def Con from 0.529341 ++++++++++++++++++++to 0.529341
Heightened Def Con from 0.529341 ++++++++++++++++++++to 0.529341
Heightened Def Con from 0.529341 +++++++++++++++++++to 0.529341
Heightened Def Con from 0.529341 ++++++++++++++++++++to 0.529341
Heightened Def Con from 0.529341 ++++++++++++++++++++to 0.529341
Heightened Def Con from 0.529341 ++++++++++++++++++++to 0.529341
Heightened Def Con from 0.529341 ++++++++++++++++++++to 0.529341
Heightened Def Con from 0.529341 +++++++++++++++++++to 0.529341
Heightened Def Con from 0.529341 ++++++++++++++++++++to 0.529341
Heightened Def Con from 0.529341 ++++++++++++++++++++to 0.529341
Heightened Def Con from 0.529341 ++++++++++++++++++++to 0.529341
Heightened Def Con from 0.529341 ++++++++++++++++++++to 0.529341
Heightened Def Con from 0.529341 +++++++++++++++++++to 0.529341
Heightened Def Con from 0.529341 ++++++++++++++++++++to 0.529341
Heightened Def Con from 0.529341 ++++++++++++++++++++to 0.529341
Heightened Def Con from 0.529341 ++++++++++++++++++++to 0.529341
Heightened Def Con from 0.529341 ++++++++++++++++++++to 0.529341
Heightened Def Con from 0.529341 +++++++++++++++++++to 0.529341
Heightened Def Con from 0.529341 ++++++++++++++++++++to 0.529341
Heightened Def Con from 0.529341 ++++++++++++++++++++to 0.529341
Heightened Def Con from 0.529341 ++++++++++++++++++++to 0.529341
Heightened Def Con from 0.529341 ++++++++++++++++++++to 0.529341
Heightened Def Con from 0.529341 +++++++++++++++++++to 0.529341
Heightened Def Con from 0.529341 ++++++++++++++++++++to 0.529341
Heightened Def Con from 0.529341 ++++++++++++++++++++to 0.529341
Heightened Def Con from 0.529341 ++++++++++++++++++++to 0.529341
Heightened Def Con from 0.529341 ++++++++++++++++++++to 0.529341
Heightened Def Con from 0.529341 +++++++++++++++++++to 0.529341
Heightened Def Con from 0.529341 ++++++++++++++++++++to 0.529341
Heightened Def Con from 0.529341 ++++++++++++++++++++to 0.529341
Heightened Def Con from 0.529341 ++++++++++++++++++++to 0.529341
Heightened Def Con from 0.529341 ++++++++++++++++++++to 0.529341
Heightened Def Con from 0.529341 +++++++++++++++++++to 0.529341
Heightened Def Con from 0.529341 ++++++++++++++++++++to 0.529341
Heightened Def Con from 0.529341 ++++++++++++++++++++to 0.529341
Heightened Def Con from 0.529341 ++++++++++++++++++++to 0.529341
Heightened Def Con from 0.529341 ++++++++++++++++++++to 0.529341
Heightened Def Con from 0.529341 +++++++++++++++++++to 0.529341
Heightened Def Con from 0.529341 ++++++++++++++++++++to 0.529341
Heightened Def Con from 0.529341 ++++++++++++++++++++to 0.529341
Heightened Def Con from 0.529341 ++++++++++++++++++++to 0.529341
Heightened Def Con from 0.529341 ++++++++++++++++++++to 0.529341
Heightened Def Con from 0.529341 +++++++++++++++++++to 0.529341
Heightened Def Con from 0.529341 ++++++++++++++++++++to 0.529341
Heightened Def Con from 0.529341 ++++++++++++++++++++to 0.529341
Heightened Def Con from 0.529341 ++++++++++++++++++++to 0.529341
Heightened Def Con from 0.529341 ++++++++++++++++++++to 0.529341
Heightened Def Con from 0.529341 +++++++++++++++++++to 0.529341
Heightened Def Con from 0.529341 ++++++++++++++++++++to 0.529341
Heightened Def Con from 0.529341 ++++++++++++++++++++to 0.529341
Heightened Def Con from 0.529341 ++++++++++++++++++++to 0.529341
Heightened Def Con from 0.529341 ++++++++++++++++++++to 0.529341
Heightened Def Con from 0.529341 +++++++++++++++++++to 0.529341
Heightened Def Con from 0.529341 ++++++++++++++++++++to 0.529341
Heightened Def Con from 0.529341 ++++++++++++++++++++to 0.529341
Heightened Def Con from 0.529341 ++++++++++++++++++++to 0.529341
Heightened Def Con from 0.529341 ++++++++++++++++++++to 0.529341
Heightened Def Con from 0.529341 +++++++++++++++++++to 0.529341
Heightened Def Con from 0.529341 ++++++++++++++++++++to 0.529341
Heightened Def Con from 0.529341 ++++++++++++++++++++to 0.529341
Heightened Def Con from 0.529341 ++++++++++++++++++++to 0.529341
Heightened Def Con from 0.529341 ++++++++++++++++++++to 0.529341
Heightened Def Con from 0.529341 +++++++++++++++++++to 0.529341
Heightened Def Con from 0.529341 ++++++++++++++++++++to 0.529341
Heightened Def Con from 0.529341 ++++++++++++++++++++to 0.529341
Heightened Def Con from 0.529341 ++++++++++++++++++++to 0.529341
Heightened Def Con from 0.529341 ++++++++++++++++++++to 0.529341
Heightened Def Con from 0.529341 ++++++++++++++++++++to 0.529341
Heightened Def Con from 0.529341 +++++++++++++++++++to 0.529341
Heightened Def Con from 0.529341 ++++++++++++++++++++to 0.529341
Heightened Def Con from 0.529341 ++++++++++++++++++++to 0.529341
Heightened Def Con from 0.529341 ++++++++++++++++++++to 0.529341
Heightened Def Con from 0.529341 ++++++++++++++++++++to 0.529341
Heightened Def Con from 0.529341 +++++++++++++++++++to 0.529341
Heightened Def Con from 0.529341 ++++++++++++++++++++to 0.529341
Heightened Def Con from 0.529341 ++++++++++++++++++++to 0.529341
Heightened Def Con from 0.529341 ++++++++++++++++++++to 0.529341
Heightened Def Con from 0.529341 ++++++++++++++++++++to 0.529341
Heightened Def Con from 0.529341 +++++++++++++++++++to 0.529341
Heightened Def Con from 0.529341 ++++++++++++++++++++to 0.529341
Heightened Def Con from 0.529341 ++++++++++++++++++++to 0.529341
Heightened Def Con from 0.529341 ++++++++++++++++++++to 0.529341
Heightened Def Con from 0.529341 ++++++++++++++++++++to 0.529341
Heightened Def Con from 0.529341 +++++++++++++++++++to 0.529341
Heightened Def Con from 0.529341 ++++++++++++++++++++to 0.529341
Heightened Def Con from 0.529341 ++++++++++++++++++++to 0.529341
Heightened Def Con from 0.529341 ++++++++++++++++++++to 0.529341
Heightened Def Con from 0.529341 ++++++++++++++++++++to 0.529341
Heightened Def Con from 0.529341 +++++++++++++++++++to 0.529341
Heightened Def Con from 0.529341 ++++++++++++++++++++to 0.529341
Heightened Def Con from 0.529341 ++++++++++++++++++++to 0.529341
Heightened Def Con from 0.529341 ++++++++++++++++++++to 0.529341
Heightened Def Con from 0.529341 ++++++++++++++++++++to 0.529341
Heightened Def Con from 0.529341 +++++++++++++++++++to 0.529341
Heightened Def Con from 0.529341 ++++++++++++++++++++to 0.529341
Heightened Def Con from 0.529341 ++++++++++++++++++++to 0.529341
Heightened Def Con from 0.529341 ++++++++++++++++++++to 0.529341
Heightened Def Con from 0.529341 ++++++++++++++++++++to 0.529341
Heightened Def Con from 0.529341 +++++++++++++++++++to 0.529341
Heightened Def Con from 0.529341 ++++++++++++++++++++to 0.529341
Heightened Def Con from 0.529341 ++++++++++++++++++++to 0.529341
Heightened Def Con from 0.529341 ++++++++++++++++++++to 0.529341
Heightened Def Con from 0.529341 ++++++++++++++++++++to 0.529341
Heightened Def Con from 0.529341 +++++++++++++++++++to 0.529341
Heightened Def Con from 0.529341 ++++++++++++++++++++to 0.529341
Heightened Def Con from 0.529341 ++++++++++++++++++++to 0.529341
Heightened Def Con from 0.529341 ++++++++++++++++++++to 0.529341
Heightened Def Con from 0.529341 ++++++++++++++++++++to 0.529341
Heightened Def Con from 0.529341 +++++++++++++++++++to 0.529341
Heightened Def Con from 0.529341 ++++++++++++++++++++to 0.529341
Heightened Def Con from 0.529341 ++++++++++++++++++++to 0.529341
Heightened Def Con from 0.529341 ++++++++++++++++++++to 0.529341
Heightened Def Con from 0.529341 ++++++++++++++++++++to 0.529341
Heightened Def Con from 0.529341 +++++++++++++++++++to 0.529341
Heightened Def Con from 0.529341 ++++++++++++++++++++to 0.529341
Heightened Def Con from 0.529341 ++++++++++++++++++++to 0.529341
Heightened Def Con from 0.529341 ++++++++++++++++++++to 0.529341
Heightened Def Con from 0.529341 ++++++++++++++++++++to 0.529341
Heightened Def Con from 0.529341 +++++++++++++++++++to 0.529341
Heightened Def Con from 0.529341 ++++++++++++++++++++to 0.529341
Heightened Def Con from 0.529341 ++++++++++++++++++++to 0.529341
Heightened Def Con from 0.529341 ++++++++++++++++++++to 0.529341
Heightened Def Con from 0.529341 ++++++++++++++++++++to 0.529341
Heightened Def Con from 0.529341 +++++++++++++++++++to 0.529341
Heightened Def Con from 0.529341 ++++++++++++++++++++to 0.529341
Heightened Def Con from 0.529341 ++++++++++++++++++++to 0.529341
Heightened Def Con from 0.529341 ++++++++++++++++++++to 0.529341
Heightened Def Con from 0.529341 ++++++++++++++++++++to 0.529341
Heightened Def Con from 0.529341 +++++++++++++++++++to 0.529341
Heightened Def Con from 0.529341 ++++++++++++++++++++to 0.529341
Heightened Def Con from 0.529341 ++++++++++++++++++++to 0.529341
Heightened Def Con from 0.529341 ++++++++++++++++++++to 0.529341
Heightened Def Con from 0.529341 ++++++++++++++++++++to 0.529341
Heightened Def Con from 0.529341 +++++++++++++++++++to 0.529341
Heightened Def Con from 0.529341 ++++++++++++++++++++to 0.529341
Heightened Def Con from 0.529341 ++++++++++++++++++++to 0.529341
Heightened Def Con from 0.529341 ++++++++++++++++++++to 0.529341
Heightened Def Con from 0.529341 ++++++++++++++++++++to 0.529341
Heightened Def Con from 0.529341 +++++++++++++++++++to 0.529341
Heightened Def Con from 0.529341 ++++++++++++++++++++to 0.529341
Heightened Def Con from 0.529341 ++++++++++++++++++++to 0.529341
Heightened Def Con from 0.529341 ++++++++++++++++++++to 0.529341
Heightened Def Con from 0.529341 ++++++++++++++++++++to 0.529341
Heightened Def Con from 0.529341 ++++++++++++++++++++to 0.529341
Heightened Def Con from 0.529341 +++++++++++++++++++to 0.529341
Heightened Def Con from 0.529341 ++++++++++++++++++++to 0.529341
Heightened Def Con from 0.529341 ++++++++++++++++++++to 0.529341
Heightened Def Con from 0.529341 ++++++++++++++++++++to 0.529341
Heightened Def Con from 0.529341 ++++++++++++++++++++to 0.529341
Heightened Def Con from 0.529341 +++++++++++++++++++to 0.529341
Heightened Def Con from 0.529341 ++++++++++++++++++++to 0.529341
Heightened Def Con from 0.529341 ++++++++++++++++++++to 0.529341
Heightened Def Con from 0.529341 ++++++++++++++++++++to 0.529341
Heightened Def Con from 0.529341 ++++++++++++++++++++to 0.529341
Heightened Def Con from 0.529341 +++++++++++++++++++to 0.529341
Heightened Def Con from 0.529341 ++++++++++++++++++++to 0.529341
Heightened Def Con from 0.529341 ++++++++++++++++++++to 0.529341
Heightened Def Con from 0.529341 ++++++++++++++++++++to 0.529341
Heightened Def Con from 0.529341 ++++++++++++++++++++to 0.529341
Heightened Def Con from 0.529341 +++++++++++++++++++to 0.529341
Heightened Def Con from 0.529341 +to 0.529341

Date: Mon Jan 23 12:36:26 2017
Total elapsed time: 1963.041 seconds.

tnom = 27
temp = 27
method = modified trap
totiter = 42597358
traniter = 42595426
tranpoints = 6665324
accept = 3695433
rejected = 3228951
matrix size = 87
fillins = 1165
solver = Normal
Thread vector: 45.2/14.1[4] 17.6/10.7[4] 5.8/3.7[4] 0.6/1.2[1]  2592/500
Matrix Compiler1: 191.06 KB object code size  33.9/15.9/[11.6]
Matrix Compiler2: 30.10 KB object code size  2.1/1.7/[1.2]


