Circuit: * W:\Desktop\ELEC4609_PRSG_D\PRSG_Dynamic\Final_PRSG.asc

Early termination of direct N-R iteration.
Direct Newton iteration failed to find .op point.  (Use ".option noopiter" to skip.)
Starting Gmin stepping
Gmin = 10
Gmin = 1.07374
Gmin = 0.115292
Gmin = 0.0123794
Gmin = 0.00132923
Gmin = 0.000142725
vernier = 0.5
vernier = 0.25
vernier = 0.125
vernier = 0.0625
Gmin = 0.000124915
vernier = 0.0833333
Gmin = 0.000103741
vernier = 0.111111
vernier = 0.148148
Gmin = 7.60989e-005
vernier = 0.197531
vernier = 0.263374
Gmin = 4.66444e-005
vernier = 0.351165
Gmin = 2.18149e-005
vernier = 0.46822
vernier = 0.624294
Gmin = 6.28584e-006
vernier = 0.832392
vernier = 0.416196
Gmin = 1.65536e-006
vernier = 0.208098
vernier = 0.104049
vernier = 0.0520245
vernier = 0.0260122
Gmin = 1.62355e-006
vernier = 0.0130061
vernier = 0.00650306
vernier = 0.00325153
vernier = 0.00162576
Gmin = 1.6196e-006
vernier = 0.00216769
Gmin = 1.61194e-006
vernier = 0.00289025
vernier = 0.00385366
Gmin = 1.59947e-006
vernier = 0.00513821
vernier = 0.00685095
Gmin = 1.57992e-006
vernier = 0.0091346
Gmin = 1.54869e-006
vernier = 0.0121795
vernier = 0.0162393
Gmin = 1.4989e-006
vernier = 0.0216524
vernier = 0.0288698
Gmin = 1.42332e-006
vernier = 0.0384931
Gmin = 1.30885e-006
vernier = 0.0513241
vernier = 0.0684321
Gmin = 1.14132e-006
vernier = 0.0912428
vernier = 0.121657
Gmin = 9.19441e-007
vernier = 0.162209
Gmin = 6.48851e-007
vernier = 0.216279
vernier = 0.288372
Gmin = 3.6895e-007
vernier = 0.384496
vernier = 0.512661
Gmin = 1.53017e-007
vernier = 0.683548
Gmin = 3.80453e-008
vernier = 0.911397
vernier = 1
Gmin = 4.85496e-009
Gmin = 5.21297e-010
Gmin = 5.59739e-011
Gmin = 6.01015e-012
Gmin = 6.45335e-013
Terminal Gmin changed to 1e-014
Gmin = 1.08269e-013
vernier = 0.5
vernier = 0.25
Gmin = 2.27057e-014
vernier = 0.125
vernier = 0.0625
vernier = 0.03125
vernier = 0.015625
vernier = 0.0078125
vernier = 0.00390625
vernier = 0.00195313
vernier = 0.000976563
vernier = 0.000488281
Gmin = 0
Gmin = 0
Gmin stepping failed

Starting source stepping with srcstepmethod=0
Source Step = 3.0303%
Source Step = 28.0303%
Source Step = 31.9602%
Source Step = 32.4337%
vernier = 0.00390625
Source Step = 32.413%
Source Step = 32.4426%
Source Step = 32.4722%
Source Step = 32.5018%
Source Step = 32.5314%
vernier = 0.00146484
Source Step = 32.5728%
Source Step = 32.6172%
Source Step = 32.6616%
Source Step = 32.706%
Source Step = 32.7504%
vernier = 0.00219727
Source Step = 32.8103%
Source Step = 32.8769%
Source Step = 32.9434%
Source Step = 33.01%
Source Step = 33.0766%
vernier = 0.0032959
Source Step = 33.1632%
Source Step = 33.2631%
Source Step = 33.3629%
Source Step = 33.4628%
Source Step = 33.5627%
vernier = 0.00494385
Source Step = 33.6875%
Source Step = 33.8373%
Source Step = 33.9871%
Source Step = 34.137%
Source Step = 34.2868%
vernier = 0.00741577
Source Step = 34.4666%
Source Step = 34.6913%
Source Step = 34.916%
Source Step = 35.1407%
Source Step = 35.3654%
vernier = 0.0111237
Source Step = 35.6239%
Source Step = 35.9609%
Source Step = 36.298%
Source Step = 36.6351%
Source Step = 36.9722%
vernier = 0.0166855
Source Step = 37.343%
Source Step = 37.8486%
Source Step = 38.3542%
Source Step = 38.8598%
Source Step = 39.3655%
vernier = 0.0250282
Source Step = 39.8964%
Source Step = 40.6548%
Source Step = 41.4132%
Source Step = 42.1717%
Source Step = 42.9301%
Source Step = 43.6885%
vernier = 0.0375423
Source Step = 44.8262%
Source Step = 45.9638%
Source Step = 47.1015%
Source Step = 48.2391%
Source Step = 49.3767%
vernier = 0.0563135
Source Step = 51.0263%
Source Step = 52.7328%
Source Step = 54.4393%
Source Step = 56.1457%
Source Step = 57.8522%
vernier = 0.0844703
Source Step = 60.2413%
Source Step = 62.801%
Source Step = 65.3607%
Source Step = 67.9204%
Source Step = 70.4801%
vernier = 0.126705
Source Step = 73.9357%
Source Step = 77.7753%
Source Step = 81.6148%
Source Step = 85.4544%
Source Step = 87.0082%
Source Step = 87.0682%
Source Step = 87.1282%
Source Step = 87.1882%
Source Step = 87.2482%
vernier = 0.00296966
Source Step = 87.3112%
Source Step = 87.4011%
Source Step = 87.4911%
Source Step = 87.5811%
Source Step = 87.6711%
Source Step = 87.7611%
vernier = 0.00445449
Source Step = 87.8961%
Source Step = 88.0311%
Source Step = 88.1661%
Source Step = 88.301%
Source Step = 88.436%
vernier = 0.00668173
Source Step = 88.6318%
Source Step = 88.8342%
Source Step = 89.0367%
Source Step = 89.2392%
Source Step = 89.4417%
vernier = 0.0100226
Source Step = 89.7251%
Source Step = 90.0288%
Source Step = 90.12%
Source Step = 90.1959%
Source Step = 90.2718%
Source Step = 90.3477%
Source Step = 90.4237%
vernier = 0.00375847
Source Step = 90.5224%
Source Step = 90.6363%
Source Step = 90.7502%
Source Step = 90.8641%
Source Step = 90.978%
vernier = 0.00563771
Source Step = 91.1203%
Source Step = 91.2912%
Source Step = 91.462%
Source Step = 91.6328%
Source Step = 91.8037%
vernier = 0.00845657
Source Step = 92.0087%
Source Step = 92.2649%
Source Step = 92.5212%
Source Step = 92.7775%
Source Step = 93.0337%
vernier = 0.0126848
Source Step = 93.3284%
Source Step = 93.7128%
Source Step = 94.0972%
Source Step = 94.4816%
Source Step = 94.866%
vernier = 0.0190273
Source Step = 95.2888%
Source Step = 95.8654%
Source Step = 96.442%
Source Step = 97.0186%
Source Step = 97.5951%
vernier = 0.0285409
Source Step = 98.2006%
Source Step = 99.0654%
Source Step = 99.9303%
Source stepping succeeded in finding the operating point.

Heightened Def Con from 1.54097 to 1.54097

Date: Mon Mar 20 19:04:00 2017
Total elapsed time: 4.240 seconds.

tnom = 27
temp = 27
method = modified trap
totiter = 91415
traniter = 81733
tranpoints = 20545
accept = 14402
rejected = 6144
matrix size = 51
fillins = 241
solver = Normal
Thread vector: 43.1/14.2[4] 17.3/8.1[4] 4.7/3.4[3] 0.4/1.2[1]  2592/500
Matrix Compiler1: 29.43 KB object code size  4.9/2.8/[1.6]
Matrix Compiler2: 10.38 KB object code size  1.3/1.0/[0.7]


