Circuit: * W:\Desktop\Inverter_Testbench.asc

Direct Newton iteration for .op point succeeded.

Date: Fri Jan 20 16:42:42 2017
Total elapsed time: 0.118 seconds.

tnom = 27
temp = 27
method = modified trap
totiter = 1443
traniter = 1433
tranpoints = 582
accept = 533
rejected = 49
matrix size = 5
fillins = 0
solver = Normal
Matrix Compiler1: 132 bytes object code size  0.1/0.0/[0.0]
Matrix Compiler2:      28 opcodes  0.0/[0.0]/0.0


