Circuit: * W:\Desktop\Shift_Register_CLK_Testbench.asc

Singular matrix:  Check node x2:n005
   Iteration No. 10
Direct Newton iteration failed to find .op point.  (Use ".option noopiter" to skip.)
Starting Gmin stepping
Gmin = 10
Gmin = 1.07374
Gmin = 0.115292
Gmin = 0.0123794
Gmin = 0.00132923
Gmin = 0.000142725
Gmin = 1.5325e-005
Gmin = 1.6455e-006
Gmin = 1.76685e-007
Gmin = 1.89714e-008
Gmin = 2.03704e-009
Gmin = 2.18725e-010
Gmin = 2.34854e-011
Gmin = 2.52173e-012
Gmin = 2.70769e-013
Gmin = 0
Gmin stepping succeeded in finding the operating point.

Changing Tseed to 1e-011
Changing Tseed to 1e-013
Changing Tseed to 1e-010
Changing Tseed to 1e-014
Changing Tseed to 1e-009
Changing Tseed to 1e-015
Changing Tseed to 1e-008
Changing Tseed to 1e-016
Heightened Def Con from 0.00200002 to 0.00200002
Heightened Def Con from 0.00400002 to 0.00400002
Heightened Def Con from 0.00600002 to 0.00600002
Heightened Def Con from 0.00800002 ++++++++++++++++++++++to 0.00800002
Heightened Def Con from 0.00800002 ++++++++++++++++++++++to 0.00800002
Heightened Def Con from 0.00800002 ++++++++++++++++++++++to 0.00800002
Heightened Def Con from 0.00800002 +++++++++++++++++++++++to 0.00800002
Heightened Def Con from 0.00800002 +++++++++++++++++to 0.00800002
Heightened Def Con from 0.009 ++++++++++++++++++to 0.009
Heightened Def Con from 0.01 to 0.01
Heightened Def Con from 0.013 to 0.013
Heightened Def Con from 0.015 to 0.015
Heightened Def Con from 0.017 to 0.017
Heightened Def Con from 0.019 to 0.019
Heightened Def Con from 0.022 to 0.022
Heightened Def Con from 0.024 to 0.024
Heightened Def Con from 0.026 to 0.026
Heightened Def Con from 0.028 +++++++++++++++++++++to 0.028
Heightened Def Con from 0.028 +++++++++++++++++++++++to 0.028
Heightened Def Con from 0.028 +++++++++++++++++to 0.028
Heightened Def Con from 0.029 ++++++++++++++++++to 0.029
Heightened Def Con from 0.03 to 0.03
Heightened Def Con from 0.033 to 0.033
Heightened Def Con from 0.035 to 0.035
Heightened Def Con from 0.037 to 0.037
Heightened Def Con from 0.039 +++++++++++to 0.039
Heightened Def Con from 0.04 +++++++++++++++++++to 0.04
Heightened Def Con from 0.042 to 0.042
Heightened Def Con from 0.044 to 0.044
Heightened Def Con from 0.046 to 0.046
Heightened Def Con from 0.048 +++++++++++++++++++++++to 0.048
Heightened Def Con from 0.048 +++++++++++++++++to 0.048
Heightened Def Con from 0.049 ++++++++++++++++++to 0.049
Heightened Def Con from 0.05 to 0.05
Heightened Def Con from 0.053 to 0.053
Heightened Def Con from 0.055 to 0.055
Heightened Def Con from 0.057 to 0.057
Heightened Def Con from 0.059 to 0.059
Heightened Def Con from 0.062 to 0.062
Heightened Def Con from 0.064 to 0.064
Heightened Def Con from 0.066 to 0.066
Heightened Def Con from 0.068 +++++++++++++++++++to 0.068
Heightened Def Con from 0.068 +++++++++++++++++++++++to 0.068
Heightened Def Con from 0.068 +++++++++++++++++to 0.068
Heightened Def Con from 0.069 ++++++++++++++++++to 0.069
Heightened Def Con from 0.07 to 0.07
Heightened Def Con from 0.073 to 0.073
Heightened Def Con from 0.075 to 0.075
Heightened Def Con from 0.077 to 0.077
Heightened Def Con from 0.079 to 0.079
Heightened Def Con from 0.08 +++++++++++++++++++to 0.08
Heightened Def Con from 0.082 to 0.082
Heightened Def Con from 0.084 to 0.084
Heightened Def Con from 0.086 to 0.086
Heightened Def Con from 0.088 ++++++++++++++++++++++to 0.088
Heightened Def Con from 0.088 ++++++++++++++++++++++to 0.088
Heightened Def Con from 0.088 +++++++++++++++++++++++to 0.088
Heightened Def Con from 0.088 +++++++++++++++++to 0.088
Heightened Def Con from 0.089 ++++++++++++++++++to 0.089
Heightened Def Con from 0.09 to 0.09
Heightened Def Con from 0.093 to 0.093
Heightened Def Con from 0.095 to 0.095
Heightened Def Con from 0.097 to 0.097
Heightened Def Con from 0.099 to 0.099
Heightened Def Con from 0.102 to 0.102
Heightened Def Con from 0.104 to 0.104
Heightened Def Con from 0.106 to 0.106
Heightened Def Con from 0.108 ++++++++++++++++++++++to 0.108
Heightened Def Con from 0.108 ++++++++++++++++++++++to 0.108
Heightened Def Con from 0.108 +++++++++++++++++++++++to 0.108
Heightened Def Con from 0.108 +++++++++++++++++to 0.108
Heightened Def Con from 0.109 ++++++++++++++++++to 0.109
Heightened Def Con from 0.11 ++++++++++++++++++++++to 0.11
Heightened Def Con from 0.113 to 0.113
Heightened Def Con from 0.115 to 0.115
Heightened Def Con from 0.117 to 0.117
Heightened Def Con from 0.119 +++++++++++to 0.119
Heightened Def Con from 0.12 +++++++++++++++++++++++to 0.12
Heightened Def Con from 0.12 +++++++++++++++++++to 0.12
Heightened Def Con from 0.12 ++++++++++++++++++++++to 0.12
Heightened Def Con from 0.122 to 0.122
Heightened Def Con from 0.124 to 0.124
Heightened Def Con from 0.126 +++++++++++++++to 0.126
Heightened Def Con from 0.128 ++++++++++++++++++++++to 0.128
Heightened Def Con from 0.128 ++++++++++++++++++++++to 0.128
Heightened Def Con from 0.128 +++++++++++++++++++++++to 0.128
Heightened Def Con from 0.128 +++++++++++++++++to 0.128
Heightened Def Con from 0.129 ++++++++++++++++++to 0.129
Heightened Def Con from 0.13 ++++++++++++++++++++++to 0.13
Heightened Def Con from 0.133 to 0.133
Heightened Def Con from 0.135 to 0.135
Heightened Def Con from 0.137 to 0.137
Heightened Def Con from 0.139 +++++++++++to 0.139
Heightened Def Con from 0.142 to 0.142
Heightened Def Con from 0.144 to 0.144
Heightened Def Con from 0.146 to 0.146
Heightened Def Con from 0.148 ++++++++++++++++++++++to 0.148
Heightened Def Con from 0.148 ++++++++++++++++++++++to 0.148
Heightened Def Con from 0.148 +++++++++++++++++++++++to 0.148
Heightened Def Con from 0.148 +++++++++++++++++to 0.148
Heightened Def Con from 0.149 ++++++++++++++++++to 0.149
Heightened Def Con from 0.15 ++++++++++++++++++++++to 0.15
Heightened Def Con from 0.153 to 0.153
Heightened Def Con from 0.155 to 0.155
Heightened Def Con from 0.157 to 0.157
Heightened Def Con from 0.159 to 0.159
Heightened Def Con from 0.16 +++++++++++++++++++++to 0.16
Heightened Def Con from 0.16 ++++++++++++++++++++++to 0.16
Heightened Def Con from 0.161 +++++++++++++++++++++++++++++++++to 0.161
Heightened Def Con from 0.161 ++++++++++++++++++++++++++to 0.161
Heightened Def Con from 0.162 to 0.162
Heightened Def Con from 0.164 to 0.164
Heightened Def Con from 0.166 +++++++++++++++to 0.166
Heightened Def Con from 0.168 +++++++++++++++++++++to 0.168
Heightened Def Con from 0.168 +++++++++++++++++++++++to 0.168
Heightened Def Con from 0.168 +++++++++++++++++to 0.168
Heightened Def Con from 0.173 to 0.173
Heightened Def Con from 0.175 to 0.175
Heightened Def Con from 0.177 to 0.177
Heightened Def Con from 0.179 +++++++++++to 0.179
Heightened Def Con from 0.18 +++++++++++++++++++++++to 0.18
Heightened Def Con from 0.18 +++++++++++++++++++to 0.18
Heightened Def Con from 0.181 +++++++++++++++++++to 0.181
Heightened Def Con from 0.182 to 0.182
Heightened Def Con from 0.184 to 0.184
Heightened Def Con from 0.186 to 0.186
Heightened Def Con from 0.188 ++++++++++++++++++++++to 0.188
Heightened Def Con from 0.188 ++++++++++++++++++++++to 0.188
Heightened Def Con from 0.188 ++++++++++++++++++++++to 0.188
Heightened Def Con from 0.188 +++++++++++++++++++++++to 0.188
Heightened Def Con from 0.188 +++++++++++++++++to 0.188
Heightened Def Con from 0.189 ++++++++++++++++++to 0.189
Heightened Def Con from 0.19 ++++++++++++++++++++++to 0.19
Heightened Def Con from 0.193 to 0.193
Heightened Def Con from 0.195 to 0.195
Heightened Def Con from 0.197 to 0.197
Heightened Def Con from 0.199 to 0.199
Heightened Def Con from 0.202 to 0.202
Heightened Def Con from 0.204 to 0.204
Heightened Def Con from 0.206 to 0.206
Heightened Def Con from 0.208 +++++++++++++++++++++to 0.208
Heightened Def Con from 0.208 +++++++++++++++++++++++to 0.208
Heightened Def Con from 0.208 +++++++++++++++++to 0.208
Heightened Def Con from 0.209 ++++++++++++++++++to 0.209
Heightened Def Con from 0.21 ++++++++++++++++++++++to 0.21
Heightened Def Con from 0.213 to 0.213
Heightened Def Con from 0.215 to 0.215
Heightened Def Con from 0.217 to 0.217
Heightened Def Con from 0.219 to 0.219
Heightened Def Con from 0.222 to 0.222
Heightened Def Con from 0.224 to 0.224
Heightened Def Con from 0.226 to 0.226
Heightened Def Con from 0.228 +++++++++++++++++++++++to 0.228
Heightened Def Con from 0.228 +++++++++++++++++to 0.228
Heightened Def Con from 0.229 ++++++++++++++++++to 0.229
Heightened Def Con from 0.23 ++++++++++++++++++++++to 0.23
Heightened Def Con from 0.233 to 0.233
Heightened Def Con from 0.235 to 0.235
Heightened Def Con from 0.237 to 0.237
Heightened Def Con from 0.239 to 0.239
Heightened Def Con from 0.242 to 0.242
Heightened Def Con from 0.244 to 0.244
Heightened Def Con from 0.246 to 0.246
Heightened Def Con from 0.248 +++++++++++++++++++++++to 0.248
Heightened Def Con from 0.248 +++++++++++++++++to 0.248
Heightened Def Con from 0.249 ++++++++++++++++++to 0.249
Heightened Def Con from 0.25 ++++++++++++++++++++++to 0.25
Heightened Def Con from 0.253 to 0.253
Heightened Def Con from 0.255 to 0.255
Heightened Def Con from 0.257 to 0.257
Heightened Def Con from 0.259 to 0.259
Heightened Def Con from 0.262 to 0.262
Heightened Def Con from 0.264 to 0.264
Heightened Def Con from 0.266 to 0.266
Heightened Def Con from 0.268 ++++++++++++++++++++++to 0.268
Heightened Def Con from 0.268 +++++++++++++++++++++++to 0.268
Heightened Def Con from 0.268 +++++++++++++++++to 0.268
Heightened Def Con from 0.269 ++++++++++++++++++to 0.269
Heightened Def Con from 0.27 ++++++++++++++++++++++to 0.27
Heightened Def Con from 0.273 to 0.273
Heightened Def Con from 0.275 to 0.275
Heightened Def Con from 0.277 to 0.277
Heightened Def Con from 0.279 to 0.279
Heightened Def Con from 0.282 to 0.282
Heightened Def Con from 0.284 to 0.284
Heightened Def Con from 0.286 to 0.286
Heightened Def Con from 0.288 ++++++++++++++++++++to 0.288
Heightened Def Con from 0.288 +++++++++++++++++++++++to 0.288
Heightened Def Con from 0.288 +++++++++++++++++to 0.288
Heightened Def Con from 0.289 ++++++++++++++++++to 0.289
Heightened Def Con from 0.29 ++++++++++++++++++++++to 0.29
Heightened Def Con from 0.293 to 0.293
Heightened Def Con from 0.295 to 0.295
Heightened Def Con from 0.297 to 0.297
Heightened Def Con from 0.299 +++++++++++to 0.299
Heightened Def Con from 0.302 to 0.302
Heightened Def Con from 0.304 to 0.304
Heightened Def Con from 0.306 to 0.306
Heightened Def Con from 0.308 +++++++++++++++++++++++to 0.308
Heightened Def Con from 0.308 +++++++++++++++++to 0.308
Heightened Def Con from 0.309 ++++++++++++++++++to 0.309
Heightened Def Con from 0.31 ++++++++++++++++++++++to 0.31
Heightened Def Con from 0.313 to 0.313
Heightened Def Con from 0.315 to 0.315
Heightened Def Con from 0.317 to 0.317
Heightened Def Con from 0.319 +++++++++++to 0.319
Heightened Def Con from 0.32 ++++++++++++++++++to 0.32
Heightened Def Con from 0.32 ++++++++++++++++++++++to 0.32
Heightened Def Con from 0.321 +++++++++++++++++++++++++++++++++to 0.321
Heightened Def Con from 0.321 ++++++++++++++++++++++++++to 0.321
Heightened Def Con from 0.322 to 0.322
Heightened Def Con from 0.324 to 0.324
Heightened Def Con from 0.326 +++++++++++++++to 0.326
Heightened Def Con from 0.328 ++++++++++++++++++++to 0.328
Heightened Def Con from 0.328 +++++++++++++++++++++++to 0.328
Heightened Def Con from 0.328 +++++++++++++++++to 0.328
Heightened Def Con from 0.33 to 0.33

Date: Mon Jan 23 19:49:10 2017
Total elapsed time: 76.233 seconds.

tnom = 27
temp = 27
method = modified trap
totiter = 4513320
traniter = 4512901
tranpoints = 997384
accept = 736772
rejected = 262918
matrix size = 27
fillins = 12
solver = Normal
Thread vector: 14.9/10.7[2] 5.9/3.1[2] 1.8/1.4[2] 0.2/1.0[1]  2592/500
Matrix Compiler1: 2.97 KB object code size  0.9/0.3/[0.2]
Matrix Compiler2: off  [0.4]/0.5/0.4


