Circuit: * W:\Desktop\ELEC4609_PRSG_D\PRSG_Dynamic\XNOR_Reset_Testbench.asc

Direct Newton iteration for .op point succeeded.

Date: Mon Mar 20 14:35:52 2017
Total elapsed time: 0.623 seconds.

tnom = 27
temp = 27
method = modified trap
totiter = 36531
traniter = 36512
tranpoints = 13379
accept = 11326
rejected = 2053
matrix size = 18
fillins = 2
solver = Normal
Thread vector: 10.8/7.6[2] 4.4/2.5[2] 1.2/0.9[2] 0.1/0.6[1]  2592/500
Matrix Compiler1: 1.45 KB object code size  0.4/0.2/[0.1]
Matrix Compiler2: off  [0.2]/0.2/0.2


